
     RDKit          3D

 37 40  0  0  0  0  0  0  0  0999 V2000
    5.0188    0.0626   -0.6950 C   0  0  0  0  0  0  0  0  0  0  0  0
    3.5763   -0.2909   -0.8933 C   0  0  0  0  0  0  0  0  0  0  0  0
    3.1769   -1.1051   -1.7097 O   0  0  0  0  0  0  0  0  0  0  0  0
    2.8040    0.4423   -0.0569 O   0  0  0  0  0  0  0  0  0  0  0  0
    1.3624    0.2215    0.0232 C   0  0  1  0  0  0  0  0  0  0  0  0
    0.6974    0.3260   -1.3635 C   0  0  0  0  0  0  0  0  0  0  0  0
   -0.8201    0.2721   -1.1653 C   0  0  1  0  0  0  0  0  0  0  0  0
   -1.2068   -1.0619   -0.5506 C   0  0  0  0  0  0  0  0  0  0  0  0
   -2.4586   -1.6250   -0.8421 C   0  0  0  0  0  0  0  0  0  0  0  0
   -2.8536   -2.8196   -0.2418 C   0  0  0  0  0  0  0  0  0  0  0  0
   -2.0087   -3.4603    0.6602 C   0  0  0  0  0  0  0  0  0  0  0  0
   -0.7658   -2.9070    0.9650 C   0  0  0  0  0  0  0  0  0  0  0  0
   -0.3511   -1.7039    0.3703 C   0  0  0  0  0  0  0  0  0  0  0  0
    1.0265   -1.1558    0.7149 C   0  0  0  0  0  0  0  0  0  0  0  0
    1.9815   -2.0790    0.3890 F   0  0  0  0  0  0  0  0  0  0  0  0
    1.1748   -1.0013    2.0704 F   0  0  0  0  0  0  0  0  0  0  0  0
   -1.2027    1.3768   -0.2361 C   0  0  0  0  0  0  0  0  0  0  0  0
   -0.3526    1.8161    0.6961 C   0  0  0  0  0  0  0  0  0  0  0  0
   -0.6947    2.8209    1.5433 N   0  0  0  0  0  0  0  0  0  0  0  0
   -1.9066    3.4492    1.5251 C   0  0  0  0  0  0  0  0  0  0  0  0
   -2.1844    4.3587    2.2986 O   0  0  0  0  0  0  0  0  0  0  0  0
   -2.7865    3.0018    0.5802 N   0  0  0  0  0  0  0  0  0  0  0  0
   -2.5262    2.0267   -0.3421 C   0  0  0  0  0  0  0  0  0  0  0  0
   -3.3303    1.7147   -1.2130 O   0  0  0  0  0  0  0  0  0  0  0  0
    0.9061    1.3174    0.8832 O   0  0  0  0  0  0  0  0  0  0  0  0
    5.3040   -0.1118    0.3456 H   0  0  0  0  0  0  0  0  0  0  0  0
    5.6389   -0.5728   -1.3339 H   0  0  0  0  0  0  0  0  0  0  0  0
    5.1854    1.1069   -0.9704 H   0  0  0  0  0  0  0  0  0  0  0  0
    1.0010   -0.4804   -2.0378 H   0  0  0  0  0  0  0  0  0  0  0  0
    0.9893    1.2669   -1.8495 H   0  0  0  0  0  0  0  0  0  0  0  0
   -1.2917    0.3905   -2.1482 H   0  0  0  0  0  0  0  0  0  0  0  0
   -3.1402   -1.1288   -1.5325 H   0  0  0  0  0  0  0  0  0  0  0  0
   -3.8253   -3.2483   -0.4752 H   0  0  0  0  0  0  0  0  0  0  0  0
   -2.3180   -4.3924    1.1268 H   0  0  0  0  0  0  0  0  0  0  0  0
   -0.1113   -3.4200    1.6689 H   0  0  0  0  0  0  0  0  0  0  0  0
   -0.0274    3.1287    2.2399 H   0  0  0  0  0  0  0  0  0  0  0  0
   -3.6809    3.4647    0.5317 H   0  0  0  0  0  0  0  0  0  0  0  0
  1  2  1  0
  2  3  2  0
  2  4  1  0
  5  4  1  6
  5  6  1  0
  6  7  1  0
  7  8  1  0
  8  9  2  0
  9 10  1  0
 10 11  2  0
 11 12  1  0
 12 13  2  0
 13 14  1  0
 14 15  1  0
 14 16  1  0
  7 17  1  0
 17 18  2  0
 18 19  1  0
 19 20  1  0
 20 21  2  0
 20 22  1  0
 22 23  1  0
 23 24  2  0
 18 25  1  0
 14  5  1  0
 23 17  1  0
 25  5  1  0
 13  8  1  0
  1 26  1  0
  1 27  1  0
  1 28  1  0
  6 29  1  0
  6 30  1  0
  7 31  1  6
  9 32  1  0
 10 33  1  0
 11 34  1  0
 12 35  1  0
 19 36  1  0
 22 37  1  0
M  END
$$$$
