
     RDKit          3D

 37 40  0  0  0  0  0  0  0  0999 V2000
    5.0326    0.2276    0.3560 C   0  0  0  0  0  0  0  0  0  0  0  0
    3.6721    0.2681   -0.2705 C   0  0  0  0  0  0  0  0  0  0  0  0
    3.4724    0.4312   -1.4627 O   0  0  0  0  0  0  0  0  0  0  0  0
    2.7224    0.1088    0.6844 O   0  0  0  0  0  0  0  0  0  0  0  0
    1.3278    0.0710    0.2531 C   0  0  2  0  0  0  0  0  0  0  0  0
    0.5586   -0.0165    1.5859 C   0  0  0  0  0  0  0  0  0  0  0  0
   -0.9376    0.0231    1.2735 C   0  0  2  0  0  0  0  0  0  0  0  0
   -1.3121   -1.2039    0.4654 C   0  0  0  0  0  0  0  0  0  0  0  0
   -2.6000   -1.7490    0.5744 C   0  0  0  0  0  0  0  0  0  0  0  0
   -2.9720   -2.8431   -0.2054 C   0  0  0  0  0  0  0  0  0  0  0  0
   -2.0669   -3.3987   -1.1055 C   0  0  0  0  0  0  0  0  0  0  0  0
   -0.7866   -2.8604   -1.2284 C   0  0  0  0  0  0  0  0  0  0  0  0
   -0.3956   -1.7573   -0.4519 C   0  0  0  0  0  0  0  0  0  0  0  0
    1.0247   -1.2253   -0.5965 C   0  0  0  0  0  0  0  0  0  0  0  0
    1.3269   -1.0097   -1.9081 F   0  0  0  0  0  0  0  0  0  0  0  0
    1.9075   -2.1969   -0.1870 F   0  0  0  0  0  0  0  0  0  0  0  0
   -1.2061    1.2546    0.4678 C   0  0  0  0  0  0  0  0  0  0  0  0
   -0.2630    1.7950   -0.3112 C   0  0  0  0  0  0  0  0  0  0  0  0
   -0.5073    2.9149   -1.0396 N   0  0  0  0  0  0  0  0  0  0  0  0
   -1.7065    3.5666   -1.0511 C   0  0  0  0  0  0  0  0  0  0  0  0
   -1.8969    4.5808   -1.7127 O   0  0  0  0  0  0  0  0  0  0  0  0
   -2.6806    3.0180   -0.2650 N   0  0  0  0  0  0  0  0  0  0  0  0
   -2.5229    1.9237    0.5390 C   0  0  0  0  0  0  0  0  0  0  0  0
   -3.4085    1.5243    1.2868 O   0  0  0  0  0  0  0  0  0  0  0  0
    1.0039    1.2978   -0.4454 O   0  0  0  0  0  0  0  0  0  0  0  0
    5.1396    1.0539    1.0631 H   0  0  0  0  0  0  0  0  0  0  0  0
    5.1808   -0.7315    0.8586 H   0  0  0  0  0  0  0  0  0  0  0  0
    5.7937    0.3326   -0.4225 H   0  0  0  0  0  0  0  0  0  0  0  0
    0.8349   -0.9246    2.1385 H   0  0  0  0  0  0  0  0  0  0  0  0
    0.8301    0.8302    2.2324 H   0  0  0  0  0  0  0  0  0  0  0  0
   -1.4818    0.0353    2.2254 H   0  0  0  0  0  0  0  0  0  0  0  0
   -3.3276   -1.3155    1.2600 H   0  0  0  0  0  0  0  0  0  0  0  0
   -3.9731   -3.2581   -0.1152 H   0  0  0  0  0  0  0  0  0  0  0  0
   -2.3589   -4.2509   -1.7144 H   0  0  0  0  0  0  0  0  0  0  0  0
   -0.0859   -3.3040   -1.9352 H   0  0  0  0  0  0  0  0  0  0  0  0
    0.2297    3.2913   -1.6241 H   0  0  0  0  0  0  0  0  0  0  0  0
   -3.5676    3.4964   -0.2364 H   0  0  0  0  0  0  0  0  0  0  0  0
  1  2  1  0
  2  3  2  0
  2  4  1  0
  5  4  1  1
  5  6  1  0
  6  7  1  0
  7  8  1  0
  8  9  2  0
  9 10  1  0
 10 11  2  0
 11 12  1  0
 12 13  2  0
 13 14  1  0
 14 15  1  0
 14 16  1  0
  7 17  1  0
 17 18  2  0
 18 19  1  0
 19 20  1  0
 20 21  2  0
 20 22  1  0
 22 23  1  0
 23 24  2  0
 18 25  1  0
 14  5  1  0
 25  5  1  0
 13  8  1  0
 23 17  1  0
  1 26  1  0
  1 27  1  0
  1 28  1  0
  6 29  1  0
  6 30  1  0
  7 31  1  1
  9 32  1  0
 10 33  1  0
 11 34  1  0
 12 35  1  0
 19 36  1  0
 22 37  1  0
M  END
$$$$
