
     RDKit          3D

 40 42  0  0  0  0  0  0  0  0999 V2000
   -4.9206   -0.9683    2.5982 O   0  0  0  0  0  0  0  0  0  0  0  0
   -4.1180   -0.6934    1.7255 C   0  0  0  0  0  0  0  0  0  0  0  0
   -2.8518   -1.1222    1.7891 O   0  0  0  0  0  0  0  0  0  0  0  0
   -4.4251    0.0456    0.4980 C   0  0  0  0  0  0  0  0  0  0  0  0
   -3.6517    0.7369   -0.3579 C   0  0  0  0  0  0  0  0  0  0  0  0
   -2.1945    1.0447   -0.4086 C   0  0  0  0  0  0  0  0  0  0  0  0
   -1.8509    2.1467   -0.8194 O   0  0  0  0  0  0  0  0  0  0  0  0
   -1.3684    0.0348    0.0017 N   0  0  0  0  0  0  0  0  0  0  0  0
    0.0455    0.0030   -0.0499 C   0  0  0  0  0  0  0  0  0  0  0  0
    0.6898   -0.9204    0.7817 C   0  0  0  0  0  0  0  0  0  0  0  0
   -0.0395   -1.7161    1.5816 F   0  0  0  0  0  0  0  0  0  0  0  0
    2.0794   -1.0342    0.8274 C   0  0  0  0  0  0  0  0  0  0  0  0
    2.8810   -0.2275    0.0118 C   0  0  0  0  0  0  0  0  0  0  0  0
    4.3472   -0.3259    0.0501 C   0  0  0  0  0  0  0  0  0  0  0  0
    5.0855    0.7160    0.6430 C   0  0  0  0  0  0  0  0  0  0  0  0
    6.4804    0.6689    0.7078 C   0  0  0  0  0  0  0  0  0  0  0  0
    7.1660   -0.4207    0.1792 C   0  0  0  0  0  0  0  0  0  0  0  0
    6.4574   -1.4629   -0.4163 C   0  0  0  0  0  0  0  0  0  0  0  0
    5.0600   -1.4177   -0.4824 C   0  0  0  0  0  0  0  0  0  0  0  0
    4.2579   -2.7415   -1.2584 Cl  0  0  0  0  0  0  0  0  0  0  0  0
    2.2447    0.6807   -0.8454 C   0  0  0  0  0  0  0  0  0  0  0  0
    0.8500    0.7857   -0.8801 C   0  0  0  0  0  0  0  0  0  0  0  0
    0.3315    1.6083   -1.8003 F   0  0  0  0  0  0  0  0  0  0  0  0
   -4.4906    1.3912   -1.4232 C   0  0  0  0  0  0  0  0  0  0  0  0
   -5.8179    0.6524   -1.3155 C   0  0  0  0  0  0  0  0  0  0  0  0
   -5.8752    0.1418    0.1179 C   0  0  0  0  0  0  0  0  0  0  0  0
   -2.8120   -1.6036    2.6457 H   0  0  0  0  0  0  0  0  0  0  0  0
   -1.7983   -0.7049    0.5560 H   0  0  0  0  0  0  0  0  0  0  0  0
    2.5239   -1.7596    1.5041 H   0  0  0  0  0  0  0  0  0  0  0  0
    4.5700    1.5772    1.0662 H   0  0  0  0  0  0  0  0  0  0  0  0
    7.0297    1.4849    1.1718 H   0  0  0  0  0  0  0  0  0  0  0  0
    8.2516   -0.4581    0.2278 H   0  0  0  0  0  0  0  0  0  0  0  0
    6.9996   -2.3086   -0.8323 H   0  0  0  0  0  0  0  0  0  0  0  0
    2.8245    1.3079   -1.5193 H   0  0  0  0  0  0  0  0  0  0  0  0
   -4.6151    2.4588   -1.2096 H   0  0  0  0  0  0  0  0  0  0  0  0
   -4.0628    1.2754   -2.4241 H   0  0  0  0  0  0  0  0  0  0  0  0
   -5.8302   -0.1949   -2.0137 H   0  0  0  0  0  0  0  0  0  0  0  0
   -6.6710    1.2918   -1.5636 H   0  0  0  0  0  0  0  0  0  0  0  0
   -6.3941    0.8521    0.7712 H   0  0  0  0  0  0  0  0  0  0  0  0
   -6.3879   -0.8242    0.1643 H   0  0  0  0  0  0  0  0  0  0  0  0
  1  2  2  0
  2  3  1  0
  2  4  1  0
  4  5  2  0
  5  6  1  0
  6  7  2  0
  6  8  1  0
  8  9  1  0
  9 10  1  0
 10 11  1  0
 10 12  2  0
 12 13  1  0
 13 14  1  0
 14 15  2  0
 15 16  1  0
 16 17  2  0
 17 18  1  0
 18 19  2  0
 19 20  1  0
 13 21  2  0
 21 22  1  0
 22 23  1  0
  5 24  1  0
 24 25  1  0
 25 26  1  0
 26  4  1  0
 22  9  2  0
 19 14  1  0
  3 27  1  0
  8 28  1  0
 12 29  1  0
 15 30  1  0
 16 31  1  0
 17 32  1  0
 18 33  1  0
 21 34  1  0
 24 35  1  0
 24 36  1  0
 25 37  1  0
 25 38  1  0
 26 39  1  0
 26 40  1  0
M  END
$$$$
