
     RDKit          3D

 44 46  0  0  0  0  0  0  0  0999 V2000
    5.8686   -1.8967   -0.7797 O   0  0  0  0  0  0  0  0  0  0  0  0
    4.9871   -1.0686   -0.6596 C   0  0  0  0  0  0  0  0  0  0  0  0
    3.8510   -1.1669   -1.3569 O   0  0  0  0  0  0  0  0  0  0  0  0
    5.0420    0.0966    0.2283 C   0  0  0  0  0  0  0  0  0  0  0  0
    4.1344    1.0279    0.5745 C   0  0  0  0  0  0  0  0  0  0  0  0
    2.7004    1.2652    0.2286 C   0  0  0  0  0  0  0  0  0  0  0  0
    2.2531    2.4028    0.3293 O   0  0  0  0  0  0  0  0  0  0  0  0
    1.9837    0.1529   -0.1172 N   0  0  0  0  0  0  0  0  0  0  0  0
    0.5950    0.0503   -0.3479 C   0  0  0  0  0  0  0  0  0  0  0  0
   -0.3125    1.0891   -0.1612 C   0  0  0  0  0  0  0  0  0  0  0  0
   -1.6813    0.8811   -0.3827 C   0  0  0  0  0  0  0  0  0  0  0  0
   -2.1727   -0.3688   -0.7958 C   0  0  0  0  0  0  0  0  0  0  0  0
   -3.6112   -0.5791   -0.9992 C   0  0  0  0  0  0  0  0  0  0  0  0
   -4.1237   -0.8410   -2.2785 C   0  0  0  0  0  0  0  0  0  0  0  0
   -5.4925   -1.0216   -2.4703 C   0  0  0  0  0  0  0  0  0  0  0  0
   -6.3621   -0.9435   -1.3827 C   0  0  0  0  0  0  0  0  0  0  0  0
   -5.8764   -0.6910   -0.0978 C   0  0  0  0  0  0  0  0  0  0  0  0
   -6.8385   -0.6438    0.8712 O   0  0  0  0  0  0  0  0  0  0  0  0
   -6.4137   -0.6004    2.2206 C   0  0  0  0  0  0  0  0  0  0  0  0
   -5.6521   -1.6728    2.5248 F   0  0  0  0  0  0  0  0  0  0  0  0
   -5.7280    0.5310    2.4806 F   0  0  0  0  0  0  0  0  0  0  0  0
   -7.5012   -0.6236    3.0195 F   0  0  0  0  0  0  0  0  0  0  0  0
   -4.5041   -0.5052    0.0843 C   0  0  0  0  0  0  0  0  0  0  0  0
   -1.2560   -1.4055   -0.9916 C   0  0  0  0  0  0  0  0  0  0  0  0
    0.1027   -1.1908   -0.7652 C   0  0  0  0  0  0  0  0  0  0  0  0
    0.9529   -2.2157   -0.9347 F   0  0  0  0  0  0  0  0  0  0  0  0
    4.7388    2.0230    1.5314 C   0  0  0  0  0  0  0  0  0  0  0  0
    6.2336    1.7751    1.3981 C   0  0  0  0  0  0  0  0  0  0  0  0
    6.3594    0.3397    0.9091 C   0  0  0  0  0  0  0  0  0  0  0  0
    3.9902   -1.9587   -1.9239 H   0  0  0  0  0  0  0  0  0  0  0  0
    2.5132   -0.6905   -0.3206 H   0  0  0  0  0  0  0  0  0  0  0  0
    0.0041    2.0722    0.1667 H   0  0  0  0  0  0  0  0  0  0  0  0
   -2.3678    1.7155   -0.2286 H   0  0  0  0  0  0  0  0  0  0  0  0
   -3.4560   -0.8833   -3.1380 H   0  0  0  0  0  0  0  0  0  0  0  0
   -5.8825   -1.2112   -3.4669 H   0  0  0  0  0  0  0  0  0  0  0  0
   -7.4291   -1.0819   -1.5423 H   0  0  0  0  0  0  0  0  0  0  0  0
   -4.0864   -0.3009    1.0685 H   0  0  0  0  0  0  0  0  0  0  0  0
   -1.5886   -2.3901   -1.2999 H   0  0  0  0  0  0  0  0  0  0  0  0
    4.3925    1.8136    2.5515 H   0  0  0  0  0  0  0  0  0  0  0  0
    4.5046    3.0619    1.2836 H   0  0  0  0  0  0  0  0  0  0  0  0
    6.7683    1.9414    2.3380 H   0  0  0  0  0  0  0  0  0  0  0  0
    6.6592    2.4611    0.6545 H   0  0  0  0  0  0  0  0  0  0  0  0
    7.2124    0.2426    0.2310 H   0  0  0  0  0  0  0  0  0  0  0  0
    6.4894   -0.3575    1.7472 H   0  0  0  0  0  0  0  0  0  0  0  0
  1  2  2  0
  2  3  1  0
  2  4  1  0
  4  5  2  0
  5  6  1  0
  6  7  2  0
  6  8  1  0
  8  9  1  0
  9 10  1  0
 10 11  2  0
 11 12  1  0
 12 13  1  0
 13 14  2  0
 14 15  1  0
 15 16  2  0
 16 17  1  0
 17 18  1  0
 18 19  1  0
 19 20  1  0
 19 21  1  0
 19 22  1  0
 17 23  2  0
 12 24  2  0
 24 25  1  0
 25 26  1  0
  5 27  1  0
 27 28  1  0
 28 29  1  0
 29  4  1  0
 25  9  2  0
 23 13  1  0
  3 30  1  0
  8 31  1  0
 10 32  1  0
 11 33  1  0
 14 34  1  0
 15 35  1  0
 16 36  1  0
 23 37  1  0
 24 38  1  0
 27 39  1  0
 27 40  1  0
 28 41  1  0
 28 42  1  0
 29 43  1  0
 29 44  1  0
M  END
$$$$
