
     RDKit          3D

 44 46  0  0  0  0  0  0  0  0999 V2000
   -0.1558    2.2752   -2.4464 C   0  0  0  0  0  0  0  0  0  0  0  0
    0.3486    1.4124   -1.4333 O   0  0  0  0  0  0  0  0  0  0  0  0
   -0.5787    0.6999   -0.7026 C   0  0  0  0  0  0  0  0  0  0  0  0
   -1.9629    0.8977   -0.7673 C   0  0  0  0  0  0  0  0  0  0  0  0
   -2.8366    0.1098    0.0051 C   0  0  0  0  0  0  0  0  0  0  0  0
   -4.2892    0.3245   -0.0576 C   0  0  0  0  0  0  0  0  0  0  0  0
   -4.9174    1.0409    0.9784 C   0  0  0  0  0  0  0  0  0  0  0  0
   -6.2940    1.2768    0.9643 C   0  0  0  0  0  0  0  0  0  0  0  0
   -7.0709    0.7934   -0.0845 C   0  0  0  0  0  0  0  0  0  0  0  0
   -6.4709    0.0776   -1.1207 C   0  0  0  0  0  0  0  0  0  0  0  0
   -5.0905   -0.1532   -1.1108 C   0  0  0  0  0  0  0  0  0  0  0  0
   -4.4221   -1.0461   -2.4341 Cl  0  0  0  0  0  0  0  0  0  0  0  0
   -2.2958   -0.8766    0.8452 C   0  0  0  0  0  0  0  0  0  0  0  0
   -0.9146   -1.0803    0.9160 C   0  0  0  0  0  0  0  0  0  0  0  0
   -0.0502   -0.2966    0.1506 C   0  0  0  0  0  0  0  0  0  0  0  0
    1.3535   -0.4438    0.1745 N   0  0  0  0  0  0  0  0  0  0  0  0
    2.0878   -1.4347    0.7757 C   0  0  0  0  0  0  0  0  0  0  0  0
    1.6838   -2.4221    1.3812 O   0  0  0  0  0  0  0  0  0  0  0  0
    3.5346   -1.2873    0.5188 C   0  0  0  0  0  0  0  0  0  0  0  0
    4.3676   -0.3465    0.9854 C   0  0  0  0  0  0  0  0  0  0  0  0
    4.0044    0.7403    1.8984 C   0  0  0  0  0  0  0  0  0  0  0  0
    2.8926    1.0222    2.2990 O   0  0  0  0  0  0  0  0  0  0  0  0
    5.0834    1.4423    2.2882 O   0  0  0  0  0  0  0  0  0  0  0  0
    5.7732   -0.6038    0.5448 C   0  0  0  0  0  0  0  0  0  0  0  0
    5.6147   -1.7056   -0.5077 C   0  0  0  0  0  0  0  0  0  0  0  0
    4.2476   -2.3432   -0.2629 C   0  0  0  0  0  0  0  0  0  0  0  0
   -0.7968    1.7320   -3.1508 H   0  0  0  0  0  0  0  0  0  0  0  0
   -0.6805    3.1272   -2.0040 H   0  0  0  0  0  0  0  0  0  0  0  0
    0.6984    2.6645   -3.0107 H   0  0  0  0  0  0  0  0  0  0  0  0
   -2.3965    1.6536   -1.4208 H   0  0  0  0  0  0  0  0  0  0  0  0
   -4.3257    1.4256    1.8078 H   0  0  0  0  0  0  0  0  0  0  0  0
   -6.7581    1.8382    1.7735 H   0  0  0  0  0  0  0  0  0  0  0  0
   -8.1432    0.9721   -0.0960 H   0  0  0  0  0  0  0  0  0  0  0  0
   -7.0837   -0.3033   -1.9338 H   0  0  0  0  0  0  0  0  0  0  0  0
   -2.9493   -1.4998    1.4533 H   0  0  0  0  0  0  0  0  0  0  0  0
   -0.5409   -1.8442    1.5917 H   0  0  0  0  0  0  0  0  0  0  0  0
    1.8445    0.2738   -0.3568 H   0  0  0  0  0  0  0  0  0  0  0  0
    4.7171    2.0919    2.9270 H   0  0  0  0  0  0  0  0  0  0  0  0
    6.2412    0.2832    0.0994 H   0  0  0  0  0  0  0  0  0  0  0  0
    6.3829   -0.9475    1.3884 H   0  0  0  0  0  0  0  0  0  0  0  0
    6.4235   -2.4401   -0.4609 H   0  0  0  0  0  0  0  0  0  0  0  0
    5.6407   -1.2637   -1.5129 H   0  0  0  0  0  0  0  0  0  0  0  0
    3.7460   -2.5664   -1.2121 H   0  0  0  0  0  0  0  0  0  0  0  0
    4.3382   -3.2703    0.3198 H   0  0  0  0  0  0  0  0  0  0  0  0
  1  2  1  0
  2  3  1  0
  3  4  1  0
  4  5  2  0
  5  6  1  0
  6  7  2  0
  7  8  1  0
  8  9  2  0
  9 10  1  0
 10 11  2  0
 11 12  1  0
  5 13  1  0
 13 14  2  0
 14 15  1  0
 15 16  1  0
 16 17  1  0
 17 18  2  0
 17 19  1  0
 19 20  2  0
 20 21  1  0
 21 22  2  0
 21 23  1  0
 20 24  1  0
 24 25  1  0
 25 26  1  0
 15  3  2  0
 26 19  1  0
 11  6  1  0
  1 27  1  0
  1 28  1  0
  1 29  1  0
  4 30  1  0
  7 31  1  0
  8 32  1  0
  9 33  1  0
 10 34  1  0
 13 35  1  0
 14 36  1  0
 16 37  1  0
 23 38  1  0
 24 39  1  0
 24 40  1  0
 25 41  1  0
 25 42  1  0
 26 43  1  0
 26 44  1  0
M  END
$$$$
