
     RDKit          3D

 44 46  0  0  0  0  0  0  0  0999 V2000
    5.9684   -1.6645   -1.1828 O   0  0  0  0  0  0  0  0  0  0  0  0
    5.0293   -0.9556   -0.8708 C   0  0  0  0  0  0  0  0  0  0  0  0
    3.8300   -1.1133   -1.4367 O   0  0  0  0  0  0  0  0  0  0  0  0
    5.0725    0.1029    0.1433 C   0  0  0  0  0  0  0  0  0  0  0  0
    4.1533    0.9822    0.5807 C   0  0  0  0  0  0  0  0  0  0  0  0
    2.7247    1.2325    0.2316 C   0  0  0  0  0  0  0  0  0  0  0  0
    2.3039    2.3833    0.2845 O   0  0  0  0  0  0  0  0  0  0  0  0
    1.9847    0.1099   -0.0310 N   0  0  0  0  0  0  0  0  0  0  0  0
    0.5913    0.0116   -0.2654 C   0  0  0  0  0  0  0  0  0  0  0  0
   -0.2727    1.1073   -0.2052 C   0  0  0  0  0  0  0  0  0  0  0  0
   -1.6458    0.9505   -0.4376 C   0  0  0  0  0  0  0  0  0  0  0  0
   -2.1901   -0.3040   -0.7361 C   0  0  0  0  0  0  0  0  0  0  0  0
   -3.6260   -0.4614   -0.9773 C   0  0  0  0  0  0  0  0  0  0  0  0
   -4.1255   -0.5214   -2.2851 C   0  0  0  0  0  0  0  0  0  0  0  0
   -5.4919   -0.6685   -2.5147 C   0  0  0  0  0  0  0  0  0  0  0  0
   -6.3703   -0.7605   -1.4361 C   0  0  0  0  0  0  0  0  0  0  0  0
   -5.8962   -0.7084   -0.1225 C   0  0  0  0  0  0  0  0  0  0  0  0
   -6.8686   -0.8142    0.8309 O   0  0  0  0  0  0  0  0  0  0  0  0
   -6.4662   -0.8125    2.1887 C   0  0  0  0  0  0  0  0  0  0  0  0
   -5.6510   -1.8547    2.4560 F   0  0  0  0  0  0  0  0  0  0  0  0
   -5.8456    0.3413    2.5135 F   0  0  0  0  0  0  0  0  0  0  0  0
   -7.5654   -0.9297    2.9660 F   0  0  0  0  0  0  0  0  0  0  0  0
   -4.5254   -0.5566    0.1002 C   0  0  0  0  0  0  0  0  0  0  0  0
   -1.3294   -1.4059   -0.7946 C   0  0  0  0  0  0  0  0  0  0  0  0
    0.0410   -1.2503   -0.5587 C   0  0  0  0  0  0  0  0  0  0  0  0
    1.0312   -2.6711   -0.6251 Cl  0  0  0  0  0  0  0  0  0  0  0  0
    4.7444    1.8993    1.6198 C   0  0  0  0  0  0  0  0  0  0  0  0
    6.2432    1.6816    1.4650 C   0  0  0  0  0  0  0  0  0  0  0  0
    6.3871    0.2998    0.8453 C   0  0  0  0  0  0  0  0  0  0  0  0
    3.9720   -1.8290   -2.0949 H   0  0  0  0  0  0  0  0  0  0  0  0
    2.4998   -0.7588   -0.1491 H   0  0  0  0  0  0  0  0  0  0  0  0
    0.0857    2.1067    0.0211 H   0  0  0  0  0  0  0  0  0  0  0  0
   -2.2903    1.8268   -0.3851 H   0  0  0  0  0  0  0  0  0  0  0  0
   -3.4481   -0.4457   -3.1340 H   0  0  0  0  0  0  0  0  0  0  0  0
   -5.8727   -0.7076   -3.5323 H   0  0  0  0  0  0  0  0  0  0  0  0
   -7.4356   -0.8755   -1.6244 H   0  0  0  0  0  0  0  0  0  0  0  0
   -4.1146   -0.5092    1.1061 H   0  0  0  0  0  0  0  0  0  0  0  0
   -1.7315   -2.3920   -1.0168 H   0  0  0  0  0  0  0  0  0  0  0  0
    4.4024    1.6035    2.6176 H   0  0  0  0  0  0  0  0  0  0  0  0
    4.4965    2.9528    1.4599 H   0  0  0  0  0  0  0  0  0  0  0  0
    6.7751    1.7663    2.4175 H   0  0  0  0  0  0  0  0  0  0  0  0
    6.6613    2.4386    0.7886 H   0  0  0  0  0  0  0  0  0  0  0  0
    7.2427    0.2743    0.1645 H   0  0  0  0  0  0  0  0  0  0  0  0
    6.5225   -0.4674    1.6156 H   0  0  0  0  0  0  0  0  0  0  0  0
  1  2  2  0
  2  3  1  0
  2  4  1  0
  4  5  2  0
  5  6  1  0
  6  7  2  0
  6  8  1  0
  8  9  1  0
  9 10  1  0
 10 11  2  0
 11 12  1  0
 12 13  1  0
 13 14  2  0
 14 15  1  0
 15 16  2  0
 16 17  1  0
 17 18  1  0
 18 19  1  0
 19 20  1  0
 19 21  1  0
 19 22  1  0
 17 23  2  0
 12 24  2  0
 24 25  1  0
 25 26  1  0
  5 27  1  0
 27 28  1  0
 28 29  1  0
 29  4  1  0
 25  9  2  0
 23 13  1  0
  3 30  1  0
  8 31  1  0
 10 32  1  0
 11 33  1  0
 14 34  1  0
 15 35  1  0
 16 36  1  0
 23 37  1  0
 24 38  1  0
 27 39  1  0
 27 40  1  0
 28 41  1  0
 28 42  1  0
 29 43  1  0
 29 44  1  0
M  END
$$$$
