
     RDKit          3D

 44 46  0  0  0  0  0  0  0  0999 V2000
    5.0145   -1.3782    2.4488 C   0  0  0  0  0  0  0  0  0  0  0  0
    4.1602   -0.7080    1.5321 O   0  0  0  0  0  0  0  0  0  0  0  0
    4.7476    0.0359    0.5380 C   0  0  0  0  0  0  0  0  0  0  0  0
    6.1288    0.2442    0.4268 C   0  0  0  0  0  0  0  0  0  0  0  0
    6.6507    1.0047   -0.6218 C   0  0  0  0  0  0  0  0  0  0  0  0
    5.8002    1.5648   -1.5677 C   0  0  0  0  0  0  0  0  0  0  0  0
    4.4236    1.3666   -1.4649 C   0  0  0  0  0  0  0  0  0  0  0  0
    3.8720    0.6052   -0.4159 C   0  0  0  0  0  0  0  0  0  0  0  0
    2.4094    0.4284   -0.3486 C   0  0  0  0  0  0  0  0  0  0  0  0
    1.7080   -0.1974   -1.3892 C   0  0  0  0  0  0  0  0  0  0  0  0
    0.3187   -0.3602   -1.3347 C   0  0  0  0  0  0  0  0  0  0  0  0
   -0.2636   -0.8854   -2.4196 F   0  0  0  0  0  0  0  0  0  0  0  0
   -0.4188    0.0840   -0.2361 C   0  0  0  0  0  0  0  0  0  0  0  0
   -1.8217   -0.0279   -0.0652 N   0  0  0  0  0  0  0  0  0  0  0  0
   -2.6863   -0.8457   -0.7400 C   0  0  0  0  0  0  0  0  0  0  0  0
   -2.3743   -1.7113   -1.5511 O   0  0  0  0  0  0  0  0  0  0  0  0
   -4.1311   -0.7300   -0.3733 C   0  0  0  0  0  0  0  0  0  0  0  0
   -4.8688    0.2307    0.2107 C   0  0  0  0  0  0  0  0  0  0  0  0
   -4.4232    1.5174    0.7430 C   0  0  0  0  0  0  0  0  0  0  0  0
   -3.3012    1.7840    1.1293 O   0  0  0  0  0  0  0  0  0  0  0  0
   -5.4194    2.4129    0.7944 O   0  0  0  0  0  0  0  0  0  0  0  0
   -6.3193   -0.1438    0.2737 C   0  0  0  0  0  0  0  0  0  0  0  0
   -6.2919   -1.6414    0.0013 C   0  0  0  0  0  0  0  0  0  0  0  0
   -5.0101   -1.8828   -0.7860 C   0  0  0  0  0  0  0  0  0  0  0  0
    0.2869    0.7301    0.7860 C   0  0  0  0  0  0  0  0  0  0  0  0
   -0.3758    1.1900    1.8599 F   0  0  0  0  0  0  0  0  0  0  0  0
    1.6707    0.8998    0.7425 C   0  0  0  0  0  0  0  0  0  0  0  0
    5.5883   -0.6627    3.0467 H   0  0  0  0  0  0  0  0  0  0  0  0
    5.6735   -2.0846    1.9333 H   0  0  0  0  0  0  0  0  0  0  0  0
    4.3836   -1.9523    3.1342 H   0  0  0  0  0  0  0  0  0  0  0  0
    6.8295   -0.1731    1.1421 H   0  0  0  0  0  0  0  0  0  0  0  0
    7.7242    1.1586   -0.6982 H   0  0  0  0  0  0  0  0  0  0  0  0
    6.2050    2.1577   -2.3838 H   0  0  0  0  0  0  0  0  0  0  0  0
    3.7723    1.8208   -2.2097 H   0  0  0  0  0  0  0  0  0  0  0  0
    2.2331   -0.5672   -2.2669 H   0  0  0  0  0  0  0  0  0  0  0  0
   -2.1902    0.5286    0.7072 H   0  0  0  0  0  0  0  0  0  0  0  0
   -5.0027    3.2197    1.1633 H   0  0  0  0  0  0  0  0  0  0  0  0
   -6.8857    0.3875   -0.4992 H   0  0  0  0  0  0  0  0  0  0  0  0
   -6.7676    0.0630    1.2506 H   0  0  0  0  0  0  0  0  0  0  0  0
   -7.1812   -1.9823   -0.5382 H   0  0  0  0  0  0  0  0  0  0  0  0
   -6.2547   -2.1919    0.9506 H   0  0  0  0  0  0  0  0  0  0  0  0
   -4.5797   -2.8555   -0.5272 H   0  0  0  0  0  0  0  0  0  0  0  0
   -5.1975   -1.8510   -1.8653 H   0  0  0  0  0  0  0  0  0  0  0  0
    2.1641    1.3981    1.5728 H   0  0  0  0  0  0  0  0  0  0  0  0
  1  2  1  0
  2  3  1  0
  3  4  2  0
  4  5  1  0
  5  6  2  0
  6  7  1  0
  7  8  2  0
  8  9  1  0
  9 10  1  0
 10 11  2  0
 11 12  1  0
 11 13  1  0
 13 14  1  0
 14 15  1  0
 15 16  2  0
 15 17  1  0
 17 18  2  0
 18 19  1  0
 19 20  2  0
 19 21  1  0
 18 22  1  0
 22 23  1  0
 23 24  1  0
 13 25  2  0
 25 26  1  0
 25 27  1  0
  8  3  1  0
 27  9  2  0
 24 17  1  0
  1 28  1  0
  1 29  1  0
  1 30  1  0
  4 31  1  0
  5 32  1  0
  6 33  1  0
  7 34  1  0
 10 35  1  0
 14 36  1  0
 21 37  1  0
 22 38  1  0
 22 39  1  0
 23 40  1  0
 23 41  1  0
 24 42  1  0
 24 43  1  0
 27 44  1  0
M  END
$$$$
