
     RDKit          3D

 44 46  0  0  0  0  0  0  0  0999 V2000
   -5.7980    1.2474   -1.7949 O   0  0  0  0  0  0  0  0  0  0  0  0
   -4.9001    0.7181   -1.1647 C   0  0  0  0  0  0  0  0  0  0  0  0
   -3.6298    0.7987   -1.5784 O   0  0  0  0  0  0  0  0  0  0  0  0
   -5.0764   -0.0970    0.0423 C   0  0  0  0  0  0  0  0  0  0  0  0
   -4.2197   -0.4739    1.0064 C   0  0  0  0  0  0  0  0  0  0  0  0
   -2.7646   -0.2278    1.2248 C   0  0  0  0  0  0  0  0  0  0  0  0
   -2.3701   -0.0431    2.3685 O   0  0  0  0  0  0  0  0  0  0  0  0
   -1.9985   -0.3016    0.0939 N   0  0  0  0  0  0  0  0  0  0  0  0
   -0.5886   -0.2618   -0.0435 C   0  0  0  0  0  0  0  0  0  0  0  0
   -0.1023   -0.2558   -1.3570 C   0  0  0  0  0  0  0  0  0  0  0  0
   -0.9732   -0.2798   -2.3818 F   0  0  0  0  0  0  0  0  0  0  0  0
    1.2644   -0.2319   -1.6402 C   0  0  0  0  0  0  0  0  0  0  0  0
    1.6446   -0.2174   -2.9294 F   0  0  0  0  0  0  0  0  0  0  0  0
    2.2240   -0.2193   -0.6207 C   0  0  0  0  0  0  0  0  0  0  0  0
    3.6724   -0.2034   -0.9147 C   0  0  0  0  0  0  0  0  0  0  0  0
    4.2243   -1.0610   -1.8820 C   0  0  0  0  0  0  0  0  0  0  0  0
    5.5898   -1.0460   -2.1655 C   0  0  0  0  0  0  0  0  0  0  0  0
    6.4302   -0.1710   -1.4851 C   0  0  0  0  0  0  0  0  0  0  0  0
    5.9179    0.6966   -0.5180 C   0  0  0  0  0  0  0  0  0  0  0  0
    6.8540    1.4979    0.0680 O   0  0  0  0  0  0  0  0  0  0  0  0
    6.4109    2.4724    0.9944 C   0  0  0  0  0  0  0  0  0  0  0  0
    7.4742    3.2045    1.3919 F   0  0  0  0  0  0  0  0  0  0  0  0
    5.5125    3.3092    0.4345 F   0  0  0  0  0  0  0  0  0  0  0  0
    5.8644    1.8932    2.0850 F   0  0  0  0  0  0  0  0  0  0  0  0
    4.5471    0.6731   -0.2382 C   0  0  0  0  0  0  0  0  0  0  0  0
    1.7297   -0.2304    0.6943 C   0  0  0  0  0  0  0  0  0  0  0  0
    2.5896   -0.2381    1.7264 F   0  0  0  0  0  0  0  0  0  0  0  0
    0.3572   -0.2529    0.9832 C   0  0  0  0  0  0  0  0  0  0  0  0
    0.0106   -0.2857    2.2769 F   0  0  0  0  0  0  0  0  0  0  0  0
   -4.9323   -1.2515    2.0804 C   0  0  0  0  0  0  0  0  0  0  0  0
   -6.4014   -0.9574    1.8083 C   0  0  0  0  0  0  0  0  0  0  0  0
   -6.4702   -0.5714    0.3369 C   0  0  0  0  0  0  0  0  0  0  0  0
   -3.6866    1.3861   -2.3666 H   0  0  0  0  0  0  0  0  0  0  0  0
   -2.5116   -0.3000   -0.7861 H   0  0  0  0  0  0  0  0  0  0  0  0
    3.5922   -1.7592   -2.4288 H   0  0  0  0  0  0  0  0  0  0  0  0
    5.9970   -1.7168   -2.9150 H   0  0  0  0  0  0  0  0  0  0  0  0
    7.4941   -0.1655   -1.7125 H   0  0  0  0  0  0  0  0  0  0  0  0
    4.1255    1.3362    0.5142 H   0  0  0  0  0  0  0  0  0  0  0  0
   -4.7155   -2.3210    1.9737 H   0  0  0  0  0  0  0  0  0  0  0  0
   -4.6647   -0.9360    3.0948 H   0  0  0  0  0  0  0  0  0  0  0  0
   -6.7350   -0.1151    2.4290 H   0  0  0  0  0  0  0  0  0  0  0  0
   -7.0463   -1.8096    2.0417 H   0  0  0  0  0  0  0  0  0  0  0  0
   -7.2293    0.2037    0.1777 H   0  0  0  0  0  0  0  0  0  0  0  0
   -6.7123   -1.4359   -0.2909 H   0  0  0  0  0  0  0  0  0  0  0  0
  1  2  2  0
  2  3  1  0
  2  4  1  0
  4  5  2  0
  5  6  1  0
  6  7  2  0
  6  8  1  0
  8  9  1  0
  9 10  1  0
 10 11  1  0
 10 12  2  0
 12 13  1  0
 12 14  1  0
 14 15  1  0
 15 16  2  0
 16 17  1  0
 17 18  2  0
 18 19  1  0
 19 20  1  0
 20 21  1  0
 21 22  1  0
 21 23  1  0
 21 24  1  0
 19 25  2  0
 14 26  2  0
 26 27  1  0
 26 28  1  0
 28 29  1  0
  5 30  1  0
 30 31  1  0
 31 32  1  0
 32  4  1  0
 28  9  2  0
 25 15  1  0
  3 33  1  0
  8 34  1  0
 16 35  1  0
 17 36  1  0
 18 37  1  0
 25 38  1  0
 30 39  1  0
 30 40  1  0
 31 41  1  0
 31 42  1  0
 32 43  1  0
 32 44  1  0
M  END
$$$$
