
     RDKit          3D

 40 42  0  0  0  0  0  0  0  0999 V2000
   -4.9119   -0.9460    2.6403 O   0  0  0  0  0  0  0  0  0  0  0  0
   -4.1131   -0.6865    1.7593 C   0  0  0  0  0  0  0  0  0  0  0  0
   -2.8392   -1.0890    1.8400 O   0  0  0  0  0  0  0  0  0  0  0  0
   -4.4320    0.0032    0.5065 C   0  0  0  0  0  0  0  0  0  0  0  0
   -3.6699    0.6757   -0.3741 C   0  0  0  0  0  0  0  0  0  0  0  0
   -2.2179    1.0048   -0.4375 C   0  0  0  0  0  0  0  0  0  0  0  0
   -1.8926    2.0967   -0.8882 O   0  0  0  0  0  0  0  0  0  0  0  0
   -1.3756    0.0235    0.0080 N   0  0  0  0  0  0  0  0  0  0  0  0
    0.0384    0.0111   -0.0462 C   0  0  0  0  0  0  0  0  0  0  0  0
    0.6986   -0.8727    0.8137 C   0  0  0  0  0  0  0  0  0  0  0  0
   -0.0159   -1.6545    1.6404 F   0  0  0  0  0  0  0  0  0  0  0  0
    2.0908   -0.9648    0.8593 C   0  0  0  0  0  0  0  0  0  0  0  0
    2.8857   -0.1753    0.0179 C   0  0  0  0  0  0  0  0  0  0  0  0
    4.3554   -0.2580    0.0596 C   0  0  0  0  0  0  0  0  0  0  0  0
    5.0507   -0.1338    1.2761 C   0  0  0  0  0  0  0  0  0  0  0  0
    6.4472   -0.2108    1.3224 C   0  0  0  0  0  0  0  0  0  0  0  0
    7.1770   -0.4141    0.1532 C   0  0  0  0  0  0  0  0  0  0  0  0
    6.5105   -0.5394   -1.0624 C   0  0  0  0  0  0  0  0  0  0  0  0
    5.1188   -0.4608   -1.1012 C   0  0  0  0  0  0  0  0  0  0  0  0
    4.5138   -0.5984   -2.2915 F   0  0  0  0  0  0  0  0  0  0  0  0
    2.2272    0.6884   -0.8704 C   0  0  0  0  0  0  0  0  0  0  0  0
    0.8302    0.7739   -0.9052 C   0  0  0  0  0  0  0  0  0  0  0  0
    0.2982    1.5571   -1.8517 F   0  0  0  0  0  0  0  0  0  0  0  0
   -4.5195    1.2781   -1.4615 C   0  0  0  0  0  0  0  0  0  0  0  0
   -5.8347    0.5224   -1.3266 C   0  0  0  0  0  0  0  0  0  0  0  0
   -5.8835    0.0625    0.1241 C   0  0  0  0  0  0  0  0  0  0  0  0
   -2.7934   -1.5380    2.7137 H   0  0  0  0  0  0  0  0  0  0  0  0
   -1.7936   -0.7017    0.5895 H   0  0  0  0  0  0  0  0  0  0  0  0
    2.5404   -1.6712    1.5525 H   0  0  0  0  0  0  0  0  0  0  0  0
    4.5076    0.0396    2.2035 H   0  0  0  0  0  0  0  0  0  0  0  0
    6.9640   -0.1074    2.2739 H   0  0  0  0  0  0  0  0  0  0  0  0
    8.2619   -0.4731    0.1893 H   0  0  0  0  0  0  0  0  0  0  0  0
    7.0622   -0.6994   -1.9835 H   0  0  0  0  0  0  0  0  0  0  0  0
    2.7915    1.3066   -1.5659 H   0  0  0  0  0  0  0  0  0  0  0  0
   -4.6612    2.3505   -1.2861 H   0  0  0  0  0  0  0  0  0  0  0  0
   -4.0901    1.1336   -2.4580 H   0  0  0  0  0  0  0  0  0  0  0  0
   -5.8334   -0.3495   -1.9941 H   0  0  0  0  0  0  0  0  0  0  0  0
   -6.6980    1.1386   -1.5968 H   0  0  0  0  0  0  0  0  0  0  0  0
   -6.4138    0.7872    0.7520 H   0  0  0  0  0  0  0  0  0  0  0  0
   -6.3807   -0.9094    0.2053 H   0  0  0  0  0  0  0  0  0  0  0  0
  1  2  2  0
  2  3  1  0
  2  4  1  0
  4  5  2  0
  5  6  1  0
  6  7  2  0
  6  8  1  0
  8  9  1  0
  9 10  1  0
 10 11  1  0
 10 12  2  0
 12 13  1  0
 13 14  1  0
 14 15  2  0
 15 16  1  0
 16 17  2  0
 17 18  1  0
 18 19  2  0
 19 20  1  0
 13 21  2  0
 21 22  1  0
 22 23  1  0
  5 24  1  0
 24 25  1  0
 25 26  1  0
 26  4  1  0
 22  9  2  0
 19 14  1  0
  3 27  1  0
  8 28  1  0
 12 29  1  0
 15 30  1  0
 16 31  1  0
 17 32  1  0
 18 33  1  0
 21 34  1  0
 24 35  1  0
 24 36  1  0
 25 37  1  0
 25 38  1  0
 26 39  1  0
 26 40  1  0
M  END
$$$$
