
     RDKit          3D

 40 42  0  0  0  0  0  0  0  0999 V2000
   -3.1478    0.2470   -1.7828 O   0  0  0  0  0  0  0  0  0  0  0  0
   -4.2189    0.1845   -1.2099 C   0  0  0  0  0  0  0  0  0  0  0  0
   -5.3719    0.3844   -1.8636 O   0  0  0  0  0  0  0  0  0  0  0  0
   -4.4238   -0.1463    0.2034 C   0  0  0  0  0  0  0  0  0  0  0  0
   -3.5078   -0.2319    1.1875 C   0  0  0  0  0  0  0  0  0  0  0  0
   -2.0289   -0.0119    1.2679 C   0  0  0  0  0  0  0  0  0  0  0  0
   -1.5257    0.0869    2.3835 O   0  0  0  0  0  0  0  0  0  0  0  0
   -1.3417   -0.0076    0.0849 N   0  0  0  0  0  0  0  0  0  0  0  0
    0.0530    0.1068   -0.0982 C   0  0  0  0  0  0  0  0  0  0  0  0
    0.9472    0.4657    0.9120 C   0  0  0  0  0  0  0  0  0  0  0  0
    2.3211    0.5369    0.6474 C   0  0  0  0  0  0  0  0  0  0  0  0
    2.8405    0.2490   -0.6240 C   0  0  0  0  0  0  0  0  0  0  0  0
    4.2949    0.3196   -0.8351 C   0  0  0  0  0  0  0  0  0  0  0  0
    4.8652    1.3371   -1.6149 C   0  0  0  0  0  0  0  0  0  0  0  0
    6.2491    1.4035   -1.8029 C   0  0  0  0  0  0  0  0  0  0  0  0
    7.0772    0.4517   -1.2075 C   0  0  0  0  0  0  0  0  0  0  0  0
    8.9498    0.5409   -1.4550 Br  0  0  0  0  0  0  0  0  0  0  0  0
    6.5348   -0.5611   -0.4240 C   0  0  0  0  0  0  0  0  0  0  0  0
    5.1502   -0.6237   -0.2403 C   0  0  0  0  0  0  0  0  0  0  0  0
    1.9273   -0.0932   -1.6368 C   0  0  0  0  0  0  0  0  0  0  0  0
    2.4496   -0.5131   -3.2316 Cl  0  0  0  0  0  0  0  0  0  0  0  0
    0.5508   -0.1498   -1.3801 C   0  0  0  0  0  0  0  0  0  0  0  0
   -4.1711   -0.6185    2.4821 C   0  0  0  0  0  0  0  0  0  0  0  0
   -5.5316   -1.1438    2.0383 C   0  0  0  0  0  0  0  0  0  0  0  0
   -5.8039   -0.4453    0.7185 C   0  0  0  0  0  0  0  0  0  0  0  0
   -5.1011    0.6156   -2.7757 H   0  0  0  0  0  0  0  0  0  0  0  0
   -1.8792   -0.1067   -0.7747 H   0  0  0  0  0  0  0  0  0  0  0  0
    0.6042    0.7261    1.9085 H   0  0  0  0  0  0  0  0  0  0  0  0
    2.9892    0.8317    1.4548 H   0  0  0  0  0  0  0  0  0  0  0  0
    4.2290    2.0874   -2.0824 H   0  0  0  0  0  0  0  0  0  0  0  0
    6.6663    2.1984   -2.4121 H   0  0  0  0  0  0  0  0  0  0  0  0
    7.1766   -1.3039    0.0486 H   0  0  0  0  0  0  0  0  0  0  0  0
    4.7367   -1.4213    0.3727 H   0  0  0  0  0  0  0  0  0  0  0  0
   -0.1271   -0.4415   -2.1770 H   0  0  0  0  0  0  0  0  0  0  0  0
   -4.2694    0.2570    3.1358 H   0  0  0  0  0  0  0  0  0  0  0  0
   -3.6206   -1.4064    3.0104 H   0  0  0  0  0  0  0  0  0  0  0  0
   -6.3159   -0.9646    2.7895 H   0  0  0  0  0  0  0  0  0  0  0  0
   -5.4866   -2.2270    1.8767 H   0  0  0  0  0  0  0  0  0  0  0  0
   -6.3819   -1.0961    0.0571 H   0  0  0  0  0  0  0  0  0  0  0  0
   -6.3583    0.4836    0.8809 H   0  0  0  0  0  0  0  0  0  0  0  0
  1  2  2  0
  2  3  1  0
  2  4  1  0
  4  5  2  0
  5  6  1  0
  6  7  2  0
  6  8  1  0
  8  9  1  0
  9 10  1  0
 10 11  2  0
 11 12  1  0
 12 13  1  0
 13 14  1  0
 14 15  2  0
 15 16  1  0
 16 17  1  0
 16 18  2  0
 18 19  1  0
 12 20  2  0
 20 21  1  0
 20 22  1  0
  5 23  1  0
 23 24  1  0
 24 25  1  0
 25  4  1  0
 22  9  2  0
 19 13  2  0
  3 26  1  0
  8 27  1  0
 10 28  1  0
 11 29  1  0
 14 30  1  0
 15 31  1  0
 18 32  1  0
 19 33  1  0
 22 34  1  0
 23 35  1  0
 23 36  1  0
 24 37  1  0
 24 38  1  0
 25 39  1  0
 25 40  1  0
M  END
$$$$
