
     RDKit          3D

 44 46  0  0  0  0  0  0  0  0999 V2000
   -5.9982    0.7042   -1.9289 O   0  0  0  0  0  0  0  0  0  0  0  0
   -5.0216    0.3247   -1.3126 C   0  0  0  0  0  0  0  0  0  0  0  0
   -3.7864    0.6593   -1.7146 O   0  0  0  0  0  0  0  0  0  0  0  0
   -5.0462   -0.5930   -0.1752 C   0  0  0  0  0  0  0  0  0  0  0  0
   -4.1562   -0.8543    0.7955 C   0  0  0  0  0  0  0  0  0  0  0  0
   -2.8167   -0.2991    1.1326 C   0  0  0  0  0  0  0  0  0  0  0  0
   -2.4994   -0.2023    2.3149 O   0  0  0  0  0  0  0  0  0  0  0  0
   -2.0273   -0.0035    0.0546 N   0  0  0  0  0  0  0  0  0  0  0  0
   -0.6698    0.3796    0.0528 C   0  0  0  0  0  0  0  0  0  0  0  0
    0.0961    0.5502    1.2053 C   0  0  0  0  0  0  0  0  0  0  0  0
    1.4533    0.8859    1.1134 C   0  0  0  0  0  0  0  0  0  0  0  0
    2.0817    1.0520   -0.1308 C   0  0  0  0  0  0  0  0  0  0  0  0
    3.5172    1.3599   -0.1783 C   0  0  0  0  0  0  0  0  0  0  0  0
    3.9694    2.6835   -0.1227 C   0  0  0  0  0  0  0  0  0  0  0  0
    5.3319    2.9695   -0.1908 C   0  0  0  0  0  0  0  0  0  0  0  0
    6.2532    1.9335   -0.3155 C   0  0  0  0  0  0  0  0  0  0  0  0
    5.8279    0.6048   -0.3604 C   0  0  0  0  0  0  0  0  0  0  0  0
    6.8351   -0.3069   -0.5007 O   0  0  0  0  0  0  0  0  0  0  0  0
    6.5122   -1.6754   -0.3030 C   0  0  0  0  0  0  0  0  0  0  0  0
    5.6270   -2.1124   -1.2216 F   0  0  0  0  0  0  0  0  0  0  0  0
    7.6378   -2.4109   -0.4396 F   0  0  0  0  0  0  0  0  0  0  0  0
    6.0219   -1.8817    0.9378 F   0  0  0  0  0  0  0  0  0  0  0  0
    4.4620    0.3227   -0.2895 C   0  0  0  0  0  0  0  0  0  0  0  0
    1.2986    0.8921   -1.2855 C   0  0  0  0  0  0  0  0  0  0  0  0
    1.9721    1.0627   -2.8710 Cl  0  0  0  0  0  0  0  0  0  0  0  0
   -0.0611    0.5677   -1.1946 C   0  0  0  0  0  0  0  0  0  0  0  0
   -4.6917   -1.8955    1.7454 C   0  0  0  0  0  0  0  0  0  0  0  0
   -5.8514   -2.4959    0.9661 C   0  0  0  0  0  0  0  0  0  0  0  0
   -6.3045   -1.3925    0.0221 C   0  0  0  0  0  0  0  0  0  0  0  0
   -3.9661    1.2563   -2.4728 H   0  0  0  0  0  0  0  0  0  0  0  0
   -2.4792   -0.0480   -0.8543 H   0  0  0  0  0  0  0  0  0  0  0  0
   -0.3283    0.4284    2.1982 H   0  0  0  0  0  0  0  0  0  0  0  0
    2.0244    1.0048    2.0318 H   0  0  0  0  0  0  0  0  0  0  0  0
    3.2578    3.5015   -0.0355 H   0  0  0  0  0  0  0  0  0  0  0  0
    5.6754    3.9990   -0.1516 H   0  0  0  0  0  0  0  0  0  0  0  0
    7.3136    2.1671   -0.3768 H   0  0  0  0  0  0  0  0  0  0  0  0
    4.0854   -0.6940   -0.3369 H   0  0  0  0  0  0  0  0  0  0  0  0
   -0.6345    0.4388   -2.1082 H   0  0  0  0  0  0  0  0  0  0  0  0
   -3.9465   -2.6620    1.9759 H   0  0  0  0  0  0  0  0  0  0  0  0
   -5.0379   -1.4329    2.6761 H   0  0  0  0  0  0  0  0  0  0  0  0
   -6.6590   -2.8475    1.6194 H   0  0  0  0  0  0  0  0  0  0  0  0
   -5.4982   -3.3571    0.3819 H   0  0  0  0  0  0  0  0  0  0  0  0
   -6.6902   -1.8103   -0.9096 H   0  0  0  0  0  0  0  0  0  0  0  0
   -7.0837   -0.7732    0.4834 H   0  0  0  0  0  0  0  0  0  0  0  0
  1  2  2  0
  2  3  1  0
  2  4  1  0
  4  5  2  0
  5  6  1  0
  6  7  2  0
  6  8  1  0
  8  9  1  0
  9 10  1  0
 10 11  2  0
 11 12  1  0
 12 13  1  0
 13 14  2  0
 14 15  1  0
 15 16  2  0
 16 17  1  0
 17 18  1  0
 18 19  1  0
 19 20  1  0
 19 21  1  0
 19 22  1  0
 17 23  2  0
 12 24  2  0
 24 25  1  0
 24 26  1  0
  5 27  1  0
 27 28  1  0
 28 29  1  0
 29  4  1  0
 26  9  2  0
 23 13  1  0
  3 30  1  0
  8 31  1  0
 10 32  1  0
 11 33  1  0
 14 34  1  0
 15 35  1  0
 16 36  1  0
 23 37  1  0
 26 38  1  0
 27 39  1  0
 27 40  1  0
 28 41  1  0
 28 42  1  0
 29 43  1  0
 29 44  1  0
M  END
$$$$
