
     RDKit          3D

 32 35  0  0  0  0  0  0  0  0999 V2000
   -0.6477    3.4632   -0.5526 O   0  0  0  0  0  0  0  0  0  0  0  0
   -0.4410    2.0677   -0.2648 C   0  0  2  0  0  0  0  0  0  0  0  0
   -0.1803    1.3559   -1.6001 C   0  0  0  0  0  0  0  0  0  0  0  0
    0.1912   -0.0946   -1.2801 C   0  0  2  0  0  0  0  0  0  0  0  0
   -0.9644   -0.7892   -0.5803 C   0  0  0  0  0  0  0  0  0  0  0  0
   -1.1234   -2.1775   -0.7051 C   0  0  0  0  0  0  0  0  0  0  0  0
   -2.1358   -2.8376   -0.0098 C   0  0  0  0  0  0  0  0  0  0  0  0
   -2.9940   -2.1221    0.8212 C   0  0  0  0  0  0  0  0  0  0  0  0
   -2.8428   -0.7429    0.9589 C   0  0  0  0  0  0  0  0  0  0  0  0
   -1.8268   -0.0627    0.2689 C   0  0  0  0  0  0  0  0  0  0  0  0
   -1.7318    1.4506    0.4014 C   0  0  0  0  0  0  0  0  0  0  0  0
   -1.7985    1.8546    1.7064 F   0  0  0  0  0  0  0  0  0  0  0  0
   -2.8292    2.0167   -0.1988 F   0  0  0  0  0  0  0  0  0  0  0  0
    1.3698   -0.0601   -0.3569 C   0  0  0  0  0  0  0  0  0  0  0  0
    1.5423    0.9455    0.5086 C   0  0  0  0  0  0  0  0  0  0  0  0
    2.6063    0.9723    1.3525 N   0  0  0  0  0  0  0  0  0  0  0  0
    3.5624   -0.0010    1.3998 C   0  0  0  0  0  0  0  0  0  0  0  0
    4.5150    0.0535    2.1693 O   0  0  0  0  0  0  0  0  0  0  0  0
    3.3920   -1.0358    0.5238 N   0  0  0  0  0  0  0  0  0  0  0  0
    2.3810   -1.1380   -0.3906 C   0  0  0  0  0  0  0  0  0  0  0  0
    2.3172   -2.0558   -1.2005 O   0  0  0  0  0  0  0  0  0  0  0  0
    0.6961    2.0159    0.6259 O   0  0  0  0  0  0  0  0  0  0  0  0
    0.1443    3.7716   -1.0212 H   0  0  0  0  0  0  0  0  0  0  0  0
    0.6416    1.8453   -2.1408 H   0  0  0  0  0  0  0  0  0  0  0  0
   -1.0598    1.4183   -2.2541 H   0  0  0  0  0  0  0  0  0  0  0  0
    0.4266   -0.6005   -2.2238 H   0  0  0  0  0  0  0  0  0  0  0  0
   -0.4496   -2.7567   -1.3358 H   0  0  0  0  0  0  0  0  0  0  0  0
   -2.2513   -3.9140   -0.1125 H   0  0  0  0  0  0  0  0  0  0  0  0
   -3.7837   -2.6386    1.3614 H   0  0  0  0  0  0  0  0  0  0  0  0
   -3.5259   -0.1914    1.6041 H   0  0  0  0  0  0  0  0  0  0  0  0
    2.7032    1.7441    2.0010 H   0  0  0  0  0  0  0  0  0  0  0  0
    4.0971   -1.7566    0.5247 H   0  0  0  0  0  0  0  0  0  0  0  0
  2  1  1  6
  2  3  1  0
  3  4  1  0
  4  5  1  0
  5  6  2  0
  6  7  1  0
  7  8  2  0
  8  9  1  0
  9 10  2  0
 10 11  1  0
 11 12  1  0
 11 13  1  0
  4 14  1  0
 14 15  2  0
 15 16  1  0
 16 17  1  0
 17 18  2  0
 17 19  1  0
 19 20  1  0
 20 21  2  0
 15 22  1  0
 11  2  1  0
 22  2  1  0
 10  5  1  0
 20 14  1  0
  1 23  1  0
  3 24  1  0
  3 25  1  0
  4 26  1  6
  6 27  1  0
  7 28  1  0
  8 29  1  0
  9 30  1  0
 16 31  1  0
 19 32  1  0
M  END
$$$$
