
     RDKit          3D

 32 35  0  0  0  0  0  0  0  0999 V2000
   -4.7052   -0.6547    1.5893 O   0  0  0  0  0  0  0  0  0  0  0  0
   -3.6728   -0.5233    0.9417 C   0  0  0  0  0  0  0  0  0  0  0  0
   -2.8349    0.5408    1.1127 N   0  0  0  0  0  0  0  0  0  0  0  0
   -1.6873    0.7194    0.4083 C   0  0  0  0  0  0  0  0  0  0  0  0
   -1.3055   -0.1571   -0.5275 C   0  0  0  0  0  0  0  0  0  0  0  0
   -2.1767   -1.3209   -0.7960 C   0  0  0  0  0  0  0  0  0  0  0  0
   -1.9184   -2.1281   -1.6815 O   0  0  0  0  0  0  0  0  0  0  0  0
   -3.2886   -1.4277   -0.0078 N   0  0  0  0  0  0  0  0  0  0  0  0
   -0.0350    0.0345   -1.2968 C   0  0  1  0  0  0  0  0  0  0  0  0
    0.2017    1.5424   -1.4184 C   0  0  0  0  0  0  0  0  0  0  0  0
    0.2286    2.1184    0.0047 C   0  0  1  0  0  0  0  0  0  0  0  0
    0.3052    3.5515   -0.1110 O   0  0  0  0  0  0  0  0  0  0  0  0
   -0.9874    1.8494    0.7382 O   0  0  0  0  0  0  0  0  0  0  0  0
    1.4990    1.5628    0.7585 C   0  0  0  0  0  0  0  0  0  0  0  0
    2.5845    2.3025    0.3595 F   0  0  0  0  0  0  0  0  0  0  0  0
    1.3729    1.8185    2.0962 F   0  0  0  0  0  0  0  0  0  0  0  0
    1.7805    0.0923    0.4845 C   0  0  0  0  0  0  0  0  0  0  0  0
    2.7841   -0.5563    1.2214 C   0  0  0  0  0  0  0  0  0  0  0  0
    3.1064   -1.8880    0.9630 C   0  0  0  0  0  0  0  0  0  0  0  0
    2.4337   -2.5863   -0.0365 C   0  0  0  0  0  0  0  0  0  0  0  0
    1.4365   -1.9566   -0.7801 C   0  0  0  0  0  0  0  0  0  0  0  0
    1.1070   -0.6152   -0.5345 C   0  0  0  0  0  0  0  0  0  0  0  0
   -3.0911    1.2189    1.8199 H   0  0  0  0  0  0  0  0  0  0  0  0
   -3.9023   -2.2116   -0.1677 H   0  0  0  0  0  0  0  0  0  0  0  0
   -0.1042   -0.3806   -2.3092 H   0  0  0  0  0  0  0  0  0  0  0  0
   -0.6053    2.0049   -2.0034 H   0  0  0  0  0  0  0  0  0  0  0  0
    1.1358    1.7685   -1.9489 H   0  0  0  0  0  0  0  0  0  0  0  0
   -0.4595    3.8299   -0.6398 H   0  0  0  0  0  0  0  0  0  0  0  0
    3.3234   -0.0164    1.9991 H   0  0  0  0  0  0  0  0  0  0  0  0
    3.8847   -2.3805    1.5409 H   0  0  0  0  0  0  0  0  0  0  0  0
    2.6822   -3.6264   -0.2336 H   0  0  0  0  0  0  0  0  0  0  0  0
    0.9080   -2.5247   -1.5451 H   0  0  0  0  0  0  0  0  0  0  0  0
  1  2  2  0
  2  3  1  0
  3  4  1  0
  4  5  2  0
  5  6  1  0
  6  7  2  0
  6  8  1  0
  5  9  1  0
  9 10  1  0
 10 11  1  0
 11 12  1  6
 11 13  1  0
 11 14  1  0
 14 15  1  0
 14 16  1  0
 14 17  1  0
 17 18  2  0
 18 19  1  0
 19 20  2  0
 20 21  1  0
 21 22  2  0
  8  2  1  0
 22  9  1  0
 13  4  1  0
 22 17  1  0
  3 23  1  0
  8 24  1  0
  9 25  1  6
 10 26  1  0
 10 27  1  0
 12 28  1  0
 18 29  1  0
 19 30  1  0
 20 31  1  0
 21 32  1  0
M  END
$$$$
