
     RDKit          3D

 48 50  0  0  0  0  0  0  0  0999 V2000
    8.0185   -1.1146   -0.6484 C   0  0  0  0  0  0  0  0  0  0  0  0
    7.3025    0.1107   -0.5769 O   0  0  0  0  0  0  0  0  0  0  0  0
    5.9428    0.0344   -0.4473 C   0  0  0  0  0  0  0  0  0  0  0  0
    5.2907    1.2638   -0.4741 C   0  0  0  0  0  0  0  0  0  0  0  0
    3.9024    1.3322   -0.3507 C   0  0  0  0  0  0  0  0  0  0  0  0
    3.1277    0.1687   -0.1969 C   0  0  0  0  0  0  0  0  0  0  0  0
    1.6597    0.2924   -0.0842 C   0  0  0  0  0  0  0  0  0  0  0  0
    1.0755    1.1045    0.9004 C   0  0  0  0  0  0  0  0  0  0  0  0
   -0.3138    1.2470    0.9987 C   0  0  0  0  0  0  0  0  0  0  0  0
   -0.7706    1.9849    2.0173 F   0  0  0  0  0  0  0  0  0  0  0  0
   -1.1692    0.5898    0.1147 C   0  0  0  0  0  0  0  0  0  0  0  0
   -2.5815    0.6584    0.1035 N   0  0  0  0  0  0  0  0  0  0  0  0
   -3.3927    1.5506    0.7554 C   0  0  0  0  0  0  0  0  0  0  0  0
   -3.0577    2.5537    1.3706 O   0  0  0  0  0  0  0  0  0  0  0  0
   -4.8376    1.3149    0.5179 C   0  0  0  0  0  0  0  0  0  0  0  0
   -5.5917    0.2160    0.6860 C   0  0  0  0  0  0  0  0  0  0  0  0
   -5.2565   -1.1268    1.1664 C   0  0  0  0  0  0  0  0  0  0  0  0
   -6.0599   -2.0266    1.3287 O   0  0  0  0  0  0  0  0  0  0  0  0
   -3.9564   -1.3100    1.4092 O   0  0  0  0  0  0  0  0  0  0  0  0
   -7.0309    0.5038    0.3726 C   0  0  0  0  0  0  0  0  0  0  0  0
   -6.9622    1.8359   -0.3683 C   0  0  0  0  0  0  0  0  0  0  0  0
   -5.6667    2.4923    0.0969 C   0  0  0  0  0  0  0  0  0  0  0  0
   -0.5822   -0.2410   -0.8458 C   0  0  0  0  0  0  0  0  0  0  0  0
   -1.3686   -0.9108   -1.7054 F   0  0  0  0  0  0  0  0  0  0  0  0
    0.8004   -0.3838   -0.9595 C   0  0  0  0  0  0  0  0  0  0  0  0
    3.7958   -1.0778   -0.1691 C   0  0  0  0  0  0  0  0  0  0  0  0
    3.0025   -2.1863    0.0145 O   0  0  0  0  0  0  0  0  0  0  0  0
    3.5906   -3.4620   -0.1997 C   0  0  0  0  0  0  0  0  0  0  0  0
    5.1949   -1.1339   -0.2888 C   0  0  0  0  0  0  0  0  0  0  0  0
    7.9416   -1.6685    0.2918 H   0  0  0  0  0  0  0  0  0  0  0  0
    9.0737   -0.8758   -0.8100 H   0  0  0  0  0  0  0  0  0  0  0  0
    7.6828   -1.7222   -1.4943 H   0  0  0  0  0  0  0  0  0  0  0  0
    5.8664    2.1786   -0.5943 H   0  0  0  0  0  0  0  0  0  0  0  0
    3.4247    2.3096   -0.3868 H   0  0  0  0  0  0  0  0  0  0  0  0
    1.6946    1.6290    1.6252 H   0  0  0  0  0  0  0  0  0  0  0  0
   -3.0356   -0.0297   -0.4886 H   0  0  0  0  0  0  0  0  0  0  0  0
   -3.9005   -2.2239    1.7554 H   0  0  0  0  0  0  0  0  0  0  0  0
   -7.4893   -0.2665   -0.2572 H   0  0  0  0  0  0  0  0  0  0  0  0
   -7.6089    0.5969    1.3005 H   0  0  0  0  0  0  0  0  0  0  0  0
   -7.8369    2.4635   -0.1752 H   0  0  0  0  0  0  0  0  0  0  0  0
   -6.9221    1.6560   -1.4513 H   0  0  0  0  0  0  0  0  0  0  0  0
   -5.2064    3.0603   -0.7168 H   0  0  0  0  0  0  0  0  0  0  0  0
   -5.8423    3.1633    0.9470 H   0  0  0  0  0  0  0  0  0  0  0  0
    1.1968   -1.0288   -1.7395 H   0  0  0  0  0  0  0  0  0  0  0  0
    4.0336   -3.5328   -1.1980 H   0  0  0  0  0  0  0  0  0  0  0  0
    4.3252   -3.6915    0.5779 H   0  0  0  0  0  0  0  0  0  0  0  0
    2.7950   -4.2098   -0.1355 H   0  0  0  0  0  0  0  0  0  0  0  0
    5.7015   -2.0878   -0.2426 H   0  0  0  0  0  0  0  0  0  0  0  0
  1  2  1  0
  2  3  1  0
  3  4  1  0
  4  5  2  0
  5  6  1  0
  6  7  1  0
  7  8  1  0
  8  9  2  0
  9 10  1  0
  9 11  1  0
 11 12  1  0
 12 13  1  0
 13 14  2  0
 13 15  1  0
 15 16  2  0
 16 17  1  0
 17 18  2  0
 17 19  1  0
 16 20  1  0
 20 21  1  0
 21 22  1  0
 11 23  2  0
 23 24  1  0
 23 25  1  0
  6 26  2  0
 26 27  1  0
 27 28  1  0
 26 29  1  0
 29  3  2  0
 25  7  2  0
 22 15  1  0
  1 30  1  0
  1 31  1  0
  1 32  1  0
  4 33  1  0
  5 34  1  0
  8 35  1  0
 12 36  1  0
 19 37  1  0
 20 38  1  0
 20 39  1  0
 21 40  1  0
 21 41  1  0
 22 42  1  0
 22 43  1  0
 25 44  1  0
 28 45  1  0
 28 46  1  0
 28 47  1  0
 29 48  1  0
M  END
$$$$
