
     RDKit          3D

 44 46  0  0  0  0  0  0  0  0999 V2000
   -5.1675   -2.1094   -1.3408 C   0  0  0  0  0  0  0  0  0  0  0  0
   -4.2519   -1.1414   -0.8473 O   0  0  0  0  0  0  0  0  0  0  0  0
   -4.7606   -0.0907   -0.1230 C   0  0  0  0  0  0  0  0  0  0  0  0
   -6.1289    0.1211    0.0943 C   0  0  0  0  0  0  0  0  0  0  0  0
   -6.5688    1.2081    0.8526 C   0  0  0  0  0  0  0  0  0  0  0  0
   -5.6488    2.0942    1.4000 C   0  0  0  0  0  0  0  0  0  0  0  0
   -4.2850    1.8949    1.1880 C   0  0  0  0  0  0  0  0  0  0  0  0
   -3.8150    0.8070    0.4257 C   0  0  0  0  0  0  0  0  0  0  0  0
   -2.3613    0.6448    0.2278 C   0  0  0  0  0  0  0  0  0  0  0  0
   -1.4987    0.4784    1.3223 C   0  0  0  0  0  0  0  0  0  0  0  0
   -0.1155    0.3347    1.1473 C   0  0  0  0  0  0  0  0  0  0  0  0
    0.4422    0.3533   -0.1310 C   0  0  0  0  0  0  0  0  0  0  0  0
    1.8289    0.2137   -0.3763 N   0  0  0  0  0  0  0  0  0  0  0  0
    2.8356    0.0300    0.5419 C   0  0  0  0  0  0  0  0  0  0  0  0
    2.7390   -0.0356    1.7598 O   0  0  0  0  0  0  0  0  0  0  0  0
    4.1651   -0.0444   -0.0988 C   0  0  0  0  0  0  0  0  0  0  0  0
    5.1048   -0.9620    0.1672 C   0  0  0  0  0  0  0  0  0  0  0  0
    4.9956   -2.1306    1.0380 C   0  0  0  0  0  0  0  0  0  0  0  0
    5.9108   -2.6247    1.6707 O   0  0  0  0  0  0  0  0  0  0  0  0
    3.7798   -2.6932    0.9855 O   0  0  0  0  0  0  0  0  0  0  0  0
    6.3906   -0.6490   -0.5233 C   0  0  0  0  0  0  0  0  0  0  0  0
    6.1796    0.7974   -0.9747 C   0  0  0  0  0  0  0  0  0  0  0  0
    4.6656    1.0053   -1.0342 C   0  0  0  0  0  0  0  0  0  0  0  0
   -0.4182    0.5201   -1.2309 C   0  0  0  0  0  0  0  0  0  0  0  0
    0.2055    0.5600   -2.8483 Cl  0  0  0  0  0  0  0  0  0  0  0  0
   -1.7974    0.6665   -1.0552 C   0  0  0  0  0  0  0  0  0  0  0  0
   -5.7149   -2.5904   -0.5234 H   0  0  0  0  0  0  0  0  0  0  0  0
   -5.8520   -1.6672   -2.0720 H   0  0  0  0  0  0  0  0  0  0  0  0
   -4.5896   -2.8841   -1.8539 H   0  0  0  0  0  0  0  0  0  0  0  0
   -6.8824   -0.5440   -0.3141 H   0  0  0  0  0  0  0  0  0  0  0  0
   -7.6328    1.3613    1.0145 H   0  0  0  0  0  0  0  0  0  0  0  0
   -5.9894    2.9417    1.9892 H   0  0  0  0  0  0  0  0  0  0  0  0
   -3.5789    2.6044    1.6161 H   0  0  0  0  0  0  0  0  0  0  0  0
   -1.9020    0.4464    2.3335 H   0  0  0  0  0  0  0  0  0  0  0  0
    0.4946    0.2029    2.0358 H   0  0  0  0  0  0  0  0  0  0  0  0
    2.0821    0.2157   -1.3580 H   0  0  0  0  0  0  0  0  0  0  0  0
    3.8269   -3.4280    1.6301 H   0  0  0  0  0  0  0  0  0  0  0  0
    7.2592   -0.7269    0.1376 H   0  0  0  0  0  0  0  0  0  0  0  0
    6.5345   -1.3142   -1.3814 H   0  0  0  0  0  0  0  0  0  0  0  0
    6.6626    1.0047   -1.9350 H   0  0  0  0  0  0  0  0  0  0  0  0
    6.6176    1.4825   -0.2366 H   0  0  0  0  0  0  0  0  0  0  0  0
    4.3960    2.0171   -0.7172 H   0  0  0  0  0  0  0  0  0  0  0  0
    4.2848    0.8342   -2.0467 H   0  0  0  0  0  0  0  0  0  0  0  0
   -2.4419    0.7954   -1.9222 H   0  0  0  0  0  0  0  0  0  0  0  0
  1  2  1  0
  2  3  1  0
  3  4  2  0
  4  5  1  0
  5  6  2  0
  6  7  1  0
  7  8  2  0
  8  9  1  0
  9 10  1  0
 10 11  2  0
 11 12  1  0
 12 13  1  0
 13 14  1  0
 14 15  2  0
 14 16  1  0
 16 17  2  0
 17 18  1  0
 18 19  2  0
 18 20  1  0
 17 21  1  0
 21 22  1  0
 22 23  1  0
 12 24  2  0
 24 25  1  0
 24 26  1  0
  8  3  1  0
 26  9  2  0
 23 16  1  0
  1 27  1  0
  1 28  1  0
  1 29  1  0
  4 30  1  0
  5 31  1  0
  6 32  1  0
  7 33  1  0
 10 34  1  0
 11 35  1  0
 13 36  1  0
 20 37  1  0
 21 38  1  0
 21 39  1  0
 22 40  1  0
 22 41  1  0
 23 42  1  0
 23 43  1  0
 26 44  1  0
M  END
$$$$
