
     RDKit          3D

 47 50  0  0  0  0  0  0  0  0999 V2000
   -4.8150   -2.4023    1.8749 O   0  0  0  0  0  0  0  0  0  0  0  0
   -4.8570   -2.1697    0.6281 C   0  0  0  0  0  0  0  0  0  0  0  0
   -5.4832   -2.8415   -0.2469 O   0  0  0  0  0  0  0  0  0  0  0  0
   -4.0724   -0.9857    0.1396 C   0  0  0  0  0  0  0  0  0  0  0  0
   -2.6755   -0.9450    0.3217 C   0  0  0  0  0  0  0  0  0  0  0  0
   -1.9821    0.1943   -0.0930 C   0  0  0  0  0  0  0  0  0  0  0  0
   -2.5889    1.2487   -0.6927 N   0  0  0  0  0  0  0  0  0  0  0  0
   -3.9141    1.1976   -0.8871 C   0  0  0  0  0  0  0  0  0  0  0  0
   -4.5121    2.2899   -1.5046 C   0  0  0  0  0  0  0  0  0  0  0  0
   -5.8861    2.3430   -1.7412 C   0  0  0  0  0  0  0  0  0  0  0  0
   -6.6775    1.2781   -1.3496 C   0  0  0  0  0  0  0  0  0  0  0  0
   -7.9980    1.3239   -1.5709 F   0  0  0  0  0  0  0  0  0  0  0  0
   -6.1140    0.1707   -0.7311 C   0  0  0  0  0  0  0  0  0  0  0  0
   -4.7199    0.1061   -0.4911 C   0  0  0  0  0  0  0  0  0  0  0  0
   -0.5220    0.3023    0.1098 C   0  0  0  0  0  0  0  0  0  0  0  0
    0.1641    1.5200   -0.0106 C   0  0  0  0  0  0  0  0  0  0  0  0
    1.5472    1.5977    0.1903 C   0  0  0  0  0  0  0  0  0  0  0  0
    2.2968    0.4573    0.5110 C   0  0  0  0  0  0  0  0  0  0  0  0
    3.7513    0.5402    0.7171 C   0  0  0  0  0  0  0  0  0  0  0  0
    4.2965    1.4274    1.6585 C   0  0  0  0  0  0  0  0  0  0  0  0
    5.6756    1.5060    1.8612 C   0  0  0  0  0  0  0  0  0  0  0  0
    6.5364    0.6986    1.1204 C   0  0  0  0  0  0  0  0  0  0  0  0
    6.0265   -0.1913    0.1647 C   0  0  0  0  0  0  0  0  0  0  0  0
    6.9505   -1.0818   -0.6262 C   0  0  0  0  0  0  0  0  0  0  0  0
    7.1403   -2.2925   -0.0320 F   0  0  0  0  0  0  0  0  0  0  0  0
    8.1961   -0.5503   -0.7891 F   0  0  0  0  0  0  0  0  0  0  0  0
    6.4982   -1.3483   -1.8832 F   0  0  0  0  0  0  0  0  0  0  0  0
    4.6346   -0.2666   -0.0205 C   0  0  0  0  0  0  0  0  0  0  0  0
    1.6170   -0.7649    0.6262 C   0  0  0  0  0  0  0  0  0  0  0  0
    0.2259   -0.8451    0.4418 C   0  0  0  0  0  0  0  0  0  0  0  0
   -0.4775   -2.1793    0.5176 C   0  0  0  0  0  0  0  0  0  0  0  0
   -1.9194   -2.0515    1.0186 C   0  0  0  0  0  0  0  0  0  0  0  0
    0.0000    0.0000    0.0000 Na  0  0  0  0  0 15  0  0  0  0  0  0
   -3.8857    3.1249   -1.8076 H   0  0  0  0  0  0  0  0  0  0  0  0
   -6.3351    3.2032   -2.2237 H   0  0  0  0  0  0  0  0  0  0  0  0
   -6.7668   -0.6508   -0.4436 H   0  0  0  0  0  0  0  0  0  0  0  0
   -0.3857    2.4246   -0.2641 H   0  0  0  0  0  0  0  0  0  0  0  0
    2.0355    2.5632    0.0788 H   0  0  0  0  0  0  0  0  0  0  0  0
    3.6385    2.0571    2.2553 H   0  0  0  0  0  0  0  0  0  0  0  0
    6.0743    2.1949    2.6017 H   0  0  0  0  0  0  0  0  0  0  0  0
    7.6097    0.7662    1.2904 H   0  0  0  0  0  0  0  0  0  0  0  0
    4.2320   -0.9576   -0.7623 H   0  0  0  0  0  0  0  0  0  0  0  0
    2.1698   -1.6691    0.8739 H   0  0  0  0  0  0  0  0  0  0  0  0
    0.0670   -2.8630    1.1797 H   0  0  0  0  0  0  0  0  0  0  0  0
   -0.4703   -2.6199   -0.4879 H   0  0  0  0  0  0  0  0  0  0  0  0
   -1.9208   -1.8375    2.0950 H   0  0  0  0  0  0  0  0  0  0  0  0
   -2.4045   -3.0221    0.8688 H   0  0  0  0  0  0  0  0  0  0  0  0
  1  2  2  0
  2  3  1  0
  2  4  1  0
  4  5  2  0
  5  6  1  0
  6  7  2  0
  7  8  1  0
  8  9  2  0
  9 10  1  0
 10 11  2  0
 11 12  1  0
 11 13  1  0
 13 14  2  0
  6 15  1  0
 15 16  2  0
 16 17  1  0
 17 18  2  0
 18 19  1  0
 19 20  1  0
 20 21  2  0
 21 22  1  0
 22 23  2  0
 23 24  1  0
 24 25  1  0
 24 26  1  0
 24 27  1  0
 23 28  1  0
 18 29  1  0
 29 30  2  0
 30 31  1  0
 31 32  1  0
 14  4  1  0
 30 15  1  0
 32  5  1  0
 14  8  1  0
 28 19  2  0
  9 34  1  0
 10 35  1  0
 13 36  1  0
 16 37  1  0
 17 38  1  0
 20 39  1  0
 21 40  1  0
 22 41  1  0
 28 42  1  0
 29 43  1  0
 31 44  1  0
 31 45  1  0
 32 46  1  0
 32 47  1  0
M  CHG  2   3  -1  33   1
M  END
$$$$
