
     RDKit          3D

 44 46  0  0  0  0  0  0  0  0999 V2000
   -4.7224    1.7943    2.4073 C   0  0  0  0  0  0  0  0  0  0  0  0
   -3.9449    0.8159    1.7293 O   0  0  0  0  0  0  0  0  0  0  0  0
   -4.6245   -0.1436    1.0189 C   0  0  0  0  0  0  0  0  0  0  0  0
   -5.9972   -0.3888    1.1425 C   0  0  0  0  0  0  0  0  0  0  0  0
   -6.6036   -1.4066    0.4031 C   0  0  0  0  0  0  0  0  0  0  0  0
   -5.8450   -2.1906   -0.4597 C   0  0  0  0  0  0  0  0  0  0  0  0
   -4.4758   -1.9574   -0.5865 C   0  0  0  0  0  0  0  0  0  0  0  0
   -3.8450   -0.9339    0.1447 C   0  0  0  0  0  0  0  0  0  0  0  0
   -2.4016   -0.7046   -0.0177 C   0  0  0  0  0  0  0  0  0  0  0  0
   -1.9111    0.4475   -0.6457 C   0  0  0  0  0  0  0  0  0  0  0  0
   -2.7716    1.3390   -1.1649 F   0  0  0  0  0  0  0  0  0  0  0  0
   -0.5394    0.6821   -0.7877 C   0  0  0  0  0  0  0  0  0  0  0  0
   -0.1667    1.7510   -1.5046 F   0  0  0  0  0  0  0  0  0  0  0  0
    0.3973   -0.2280   -0.2894 C   0  0  0  0  0  0  0  0  0  0  0  0
    1.8068   -0.0844   -0.3730 N   0  0  0  0  0  0  0  0  0  0  0  0
    2.4979    1.0910   -0.5106 C   0  0  0  0  0  0  0  0  0  0  0  0
    2.0084    2.2148   -0.4625 O   0  0  0  0  0  0  0  0  0  0  0  0
    3.9692    0.9803   -0.7376 C   0  0  0  0  0  0  0  0  0  0  0  0
    4.8986    0.0641   -0.4146 C   0  0  0  0  0  0  0  0  0  0  0  0
    4.7070   -1.1980    0.2982 C   0  0  0  0  0  0  0  0  0  0  0  0
    3.6432   -1.7562    0.4890 O   0  0  0  0  0  0  0  0  0  0  0  0
    5.8634   -1.7170    0.7332 O   0  0  0  0  0  0  0  0  0  0  0  0
    6.2688    0.4867   -0.8536 C   0  0  0  0  0  0  0  0  0  0  0  0
    5.9764    1.6155   -1.8331 C   0  0  0  0  0  0  0  0  0  0  0  0
    4.6115    2.1563   -1.4269 C   0  0  0  0  0  0  0  0  0  0  0  0
   -0.0917   -1.3990    0.2989 C   0  0  0  0  0  0  0  0  0  0  0  0
    0.7710   -2.3228    0.7519 F   0  0  0  0  0  0  0  0  0  0  0  0
   -1.4603   -1.6297    0.4402 C   0  0  0  0  0  0  0  0  0  0  0  0
   -1.8658   -2.7675    1.0268 F   0  0  0  0  0  0  0  0  0  0  0  0
   -5.2531    1.3517    3.2563 H   0  0  0  0  0  0  0  0  0  0  0  0
   -5.4152    2.2979    1.7248 H   0  0  0  0  0  0  0  0  0  0  0  0
   -4.0367    2.5501    2.8024 H   0  0  0  0  0  0  0  0  0  0  0  0
   -6.6221    0.1885    1.8156 H   0  0  0  0  0  0  0  0  0  0  0  0
   -7.6702   -1.5901    0.5066 H   0  0  0  0  0  0  0  0  0  0  0  0
   -6.3169   -2.9847   -1.0326 H   0  0  0  0  0  0  0  0  0  0  0  0
   -3.8985   -2.5815   -1.2657 H   0  0  0  0  0  0  0  0  0  0  0  0
    2.3396   -0.9194   -0.1220 H   0  0  0  0  0  0  0  0  0  0  0  0
    5.6054   -2.5436    1.1927 H   0  0  0  0  0  0  0  0  0  0  0  0
    6.8222   -0.3176   -1.3483 H   0  0  0  0  0  0  0  0  0  0  0  0
    6.8503    0.8468    0.0024 H   0  0  0  0  0  0  0  0  0  0  0  0
    5.9300    1.2185   -2.8557 H   0  0  0  0  0  0  0  0  0  0  0  0
    6.7508    2.3891   -1.8191 H   0  0  0  0  0  0  0  0  0  0  0  0
    4.7112    2.9976   -0.7318 H   0  0  0  0  0  0  0  0  0  0  0  0
    4.0507    2.4862   -2.3073 H   0  0  0  0  0  0  0  0  0  0  0  0
  1  2  1  0
  2  3  1  0
  3  4  2  0
  4  5  1  0
  5  6  2  0
  6  7  1  0
  7  8  2  0
  8  9  1  0
  9 10  1  0
 10 11  1  0
 10 12  2  0
 12 13  1  0
 12 14  1  0
 14 15  1  0
 15 16  1  0
 16 17  2  0
 16 18  1  0
 18 19  2  0
 19 20  1  0
 20 21  2  0
 20 22  1  0
 19 23  1  0
 23 24  1  0
 24 25  1  0
 14 26  2  0
 26 27  1  0
 26 28  1  0
 28 29  1  0
  8  3  1  0
 28  9  2  0
 25 18  1  0
  1 30  1  0
  1 31  1  0
  1 32  1  0
  4 33  1  0
  5 34  1  0
  6 35  1  0
  7 36  1  0
 15 37  1  0
 22 38  1  0
 23 39  1  0
 23 40  1  0
 24 41  1  0
 24 42  1  0
 25 43  1  0
 25 44  1  0
M  END
$$$$
