
     RDKit          3D

 45 48  0  0  0  0  0  0  0  0999 V2000
   -4.1106    0.2804    2.1194 C   0  0  0  0  0  0  0  0  0  0  0  0
   -4.7135    0.4789    0.7539 C   0  0  0  0  0  0  0  0  0  0  0  0
   -6.1028    0.6563    0.6380 C   0  0  0  0  0  0  0  0  0  0  0  0
   -6.6976    0.8433   -0.6096 C   0  0  0  0  0  0  0  0  0  0  0  0
   -5.9131    0.8578   -1.7576 C   0  0  0  0  0  0  0  0  0  0  0  0
   -4.5321    0.6872   -1.6569 C   0  0  0  0  0  0  0  0  0  0  0  0
   -3.9114    0.4988   -0.4089 C   0  0  0  0  0  0  0  0  0  0  0  0
   -2.4536    0.3273   -0.3592 C   0  0  0  0  0  0  0  0  0  0  0  0
   -1.6120    1.4125   -0.1011 C   0  0  0  0  0  0  0  0  0  0  0  0
   -0.2245    1.2425   -0.0520 C   0  0  0  0  0  0  0  0  0  0  0  0
    0.3758   -0.0132   -0.2661 C   0  0  0  0  0  0  0  0  0  0  0  0
   -0.4750   -1.1063   -0.5401 C   0  0  0  0  0  0  0  0  0  0  0  0
   -1.8722   -0.9288   -0.5751 C   0  0  0  0  0  0  0  0  0  0  0  0
    0.0963   -2.4887   -0.7253 C   0  0  0  0  0  0  0  0  0  0  0  0
    1.5918   -2.4829   -1.7369 S   0  0  0  0  0  0  0  0  0  0  0  0
    2.5185   -1.2601   -0.8042 C   0  0  0  0  0  0  0  0  0  0  0  0
    1.8525   -0.1775   -0.2080 C   0  0  0  0  0  0  0  0  0  0  0  0
    2.5039    0.8057    0.4745 N   0  0  0  0  0  0  0  0  0  0  0  0
    3.8366    0.7416    0.5842 C   0  0  0  0  0  0  0  0  0  0  0  0
    4.4766    1.7572    1.2851 C   0  0  0  0  0  0  0  0  0  0  0  0
    5.8611    1.7738    1.4576 C   0  0  0  0  0  0  0  0  0  0  0  0
    6.6186    0.7507    0.9160 C   0  0  0  0  0  0  0  0  0  0  0  0
    7.9484    0.7599    1.0781 F   0  0  0  0  0  0  0  0  0  0  0  0
    6.0109   -0.2785    0.2107 C   0  0  0  0  0  0  0  0  0  0  0  0
    4.6063   -0.3017    0.0303 C   0  0  0  0  0  0  0  0  0  0  0  0
    3.9160   -1.3217   -0.6749 C   0  0  0  0  0  0  0  0  0  0  0  0
    4.6867   -2.4694   -1.2382 C   0  0  0  0  0  0  0  0  0  0  0  0
    5.3199   -2.2522   -2.3160 O   0  0  0  0  0  0  0  0  0  0  0  0
    4.6901   -3.5360   -0.5507 O   0  0  0  0  0  0  0  0  0  0  0  0
    0.0000    0.0000    0.0000 Na  0  0  0  0  0 15  0  0  0  0  0  0
   -4.8845    0.2079    2.8912 H   0  0  0  0  0  0  0  0  0  0  0  0
   -3.5322   -0.6483    2.1540 H   0  0  0  0  0  0  0  0  0  0  0  0
   -3.4651    1.1258    2.3773 H   0  0  0  0  0  0  0  0  0  0  0  0
   -6.7319    0.6475    1.5252 H   0  0  0  0  0  0  0  0  0  0  0  0
   -7.7733    0.9769   -0.6840 H   0  0  0  0  0  0  0  0  0  0  0  0
   -6.3713    1.0025   -2.7320 H   0  0  0  0  0  0  0  0  0  0  0  0
   -3.9282    0.7035   -2.5629 H   0  0  0  0  0  0  0  0  0  0  0  0
   -2.0304    2.4022    0.0665 H   0  0  0  0  0  0  0  0  0  0  0  0
    0.4007    2.1103    0.1533 H   0  0  0  0  0  0  0  0  0  0  0  0
   -2.5176   -1.7839   -0.7711 H   0  0  0  0  0  0  0  0  0  0  0  0
   -0.6288   -3.1403   -1.2243 H   0  0  0  0  0  0  0  0  0  0  0  0
    0.3125   -2.9273    0.2556 H   0  0  0  0  0  0  0  0  0  0  0  0
    3.8762    2.5576    1.7097 H   0  0  0  0  0  0  0  0  0  0  0  0
    6.3445    2.5733    2.0071 H   0  0  0  0  0  0  0  0  0  0  0  0
    6.6376   -1.0647   -0.2064 H   0  0  0  0  0  0  0  0  0  0  0  0
  1  2  1  0
  2  3  2  0
  3  4  1  0
  4  5  2  0
  5  6  1  0
  6  7  2  0
  7  8  1  0
  8  9  2  0
  9 10  1  0
 10 11  2  0
 11 12  1  0
 12 13  2  0
 12 14  1  0
 14 15  1  0
 15 16  1  0
 16 17  1  0
 17 18  2  0
 18 19  1  0
 19 20  2  0
 20 21  1  0
 21 22  2  0
 22 23  1  0
 22 24  1  0
 24 25  2  0
 25 26  1  0
 26 27  1  0
 27 28  2  0
 27 29  1  0
  7  2  1  0
 13  8  1  0
 26 16  2  0
 17 11  1  0
 25 19  1  0
  1 31  1  0
  1 32  1  0
  1 33  1  0
  3 34  1  0
  4 35  1  0
  5 36  1  0
  6 37  1  0
  9 38  1  0
 10 39  1  0
 13 40  1  0
 14 41  1  0
 14 42  1  0
 20 43  1  0
 21 44  1  0
 24 45  1  0
M  CHG  2  29  -1  30   1
M  END
$$$$
