
     RDKit          3D

 43 45  0  0  0  0  0  0  0  0999 V2000
   -1.5037   -2.4076    0.9423 C   0  0  0  0  0  0  0  0  0  0  0  0
   -2.1808   -1.1462    0.4740 C   0  0  0  0  0  0  0  0  0  0  0  0
   -1.4541   -0.0222    0.0672 C   0  0  0  0  0  0  0  0  0  0  0  0
    0.0172    0.0268    0.0019 C   0  0  0  0  0  0  0  0  0  0  0  0
    0.7438   -0.8293   -0.8384 C   0  0  0  0  0  0  0  0  0  0  0  0
    2.1426   -0.7756   -0.8903 C   0  0  0  0  0  0  0  0  0  0  0  0
    2.8640    0.1408   -0.1098 C   0  0  0  0  0  0  0  0  0  0  0  0
    4.3369    0.1833   -0.1430 C   0  0  0  0  0  0  0  0  0  0  0  0
    5.0829    0.1509    1.0500 C   0  0  0  0  0  0  0  0  0  0  0  0
    6.4817    0.1884    1.0338 C   0  0  0  0  0  0  0  0  0  0  0  0
    7.1654    0.2589   -0.1776 C   0  0  0  0  0  0  0  0  0  0  0  0
    6.4492    0.2898   -1.3710 C   0  0  0  0  0  0  0  0  0  0  0  0
    5.0546    0.2512   -1.3473 C   0  0  0  0  0  0  0  0  0  0  0  0
    4.4086    0.2911   -2.5233 F   0  0  0  0  0  0  0  0  0  0  0  0
    2.1330    1.0115    0.7148 C   0  0  0  0  0  0  0  0  0  0  0  0
    0.7348    0.9580    0.7658 C   0  0  0  0  0  0  0  0  0  0  0  0
   -2.0441    1.1420   -0.3108 N   0  0  0  0  0  0  0  0  0  0  0  0
   -3.3808    1.2090   -0.3430 C   0  0  0  0  0  0  0  0  0  0  0  0
   -3.9527    2.4088   -0.7500 C   0  0  0  0  0  0  0  0  0  0  0  0
   -5.3352    2.5756   -0.8343 C   0  0  0  0  0  0  0  0  0  0  0  0
   -6.1609    1.5162   -0.5039 C   0  0  0  0  0  0  0  0  0  0  0  0
   -7.4896    1.6675   -0.5851 F   0  0  0  0  0  0  0  0  0  0  0  0
   -5.6227    0.3048   -0.0925 C   0  0  0  0  0  0  0  0  0  0  0  0
   -4.2201    0.1286    0.0002 C   0  0  0  0  0  0  0  0  0  0  0  0
   -3.5923   -1.0751    0.4111 C   0  0  0  0  0  0  0  0  0  0  0  0
   -4.4185   -2.2801    0.7664 C   0  0  0  0  0  0  0  0  0  0  0  0
   -4.2567   -3.3105    0.0435 O   0  0  0  0  0  0  0  0  0  0  0  0
   -5.1994   -2.1660    1.7598 O   0  0  0  0  0  0  0  0  0  0  0  0
    0.0000    0.0000    0.0000 Na  0  0  0  0  0 15  0  0  0  0  0  0
   -1.3654   -3.0964    0.1033 H   0  0  0  0  0  0  0  0  0  0  0  0
   -0.5289   -2.2005    1.3949 H   0  0  0  0  0  0  0  0  0  0  0  0
   -2.0827   -2.9074    1.7257 H   0  0  0  0  0  0  0  0  0  0  0  0
    0.2165   -1.5469   -1.4650 H   0  0  0  0  0  0  0  0  0  0  0  0
    2.6639   -1.4660   -1.5503 H   0  0  0  0  0  0  0  0  0  0  0  0
    4.5715    0.0807    2.0088 H   0  0  0  0  0  0  0  0  0  0  0  0
    7.0332    0.1579    1.9703 H   0  0  0  0  0  0  0  0  0  0  0  0
    8.2515    0.2873   -0.1917 H   0  0  0  0  0  0  0  0  0  0  0  0
    6.9627    0.3449   -2.3255 H   0  0  0  0  0  0  0  0  0  0  0  0
    2.6447    1.7548    1.3218 H   0  0  0  0  0  0  0  0  0  0  0  0
    0.1940    1.6514    1.4075 H   0  0  0  0  0  0  0  0  0  0  0  0
   -3.2973    3.2350   -1.0136 H   0  0  0  0  0  0  0  0  0  0  0  0
   -5.7638    3.5178   -1.1553 H   0  0  0  0  0  0  0  0  0  0  0  0
   -6.3030   -0.5034    0.1672 H   0  0  0  0  0  0  0  0  0  0  0  0
  1  2  1  0
  2  3  1  0
  3  4  1  0
  4  5  1  0
  5  6  2  0
  6  7  1  0
  7  8  1  0
  8  9  2  0
  9 10  1  0
 10 11  2  0
 11 12  1  0
 12 13  2  0
 13 14  1  0
  7 15  2  0
 15 16  1  0
  3 17  2  0
 17 18  1  0
 18 19  2  0
 19 20  1  0
 20 21  2  0
 21 22  1  0
 21 23  1  0
 23 24  2  0
 24 25  1  0
 25 26  1  0
 26 27  2  0
 26 28  1  0
 25  2  2  0
 16  4  2  0
 24 18  1  0
 13  8  1  0
  1 30  1  0
  1 31  1  0
  1 32  1  0
  5 33  1  0
  6 34  1  0
  9 35  1  0
 10 36  1  0
 11 37  1  0
 12 38  1  0
 15 39  1  0
 16 40  1  0
 19 41  1  0
 20 42  1  0
 23 43  1  0
M  CHG  2  28  -1  29   1
M  END
$$$$
