
     RDKit          3D

 47 49  0  0  0  0  0  0  0  0999 V2000
   -0.2149    0.8987    2.5600 C   0  0  0  0  0  0  0  0  0  0  0  0
    0.3089    0.6607    1.1686 C   0  0  0  0  0  0  0  0  0  0  0  0
    1.6827    0.8903    0.9419 C   0  0  0  0  0  0  0  0  0  0  0  0
    2.2679    0.6900   -0.3151 C   0  0  0  0  0  0  0  0  0  0  0  0
    3.7012    0.9221   -0.5263 C   0  0  0  0  0  0  0  0  0  0  0  0
    4.2327    2.2176   -0.4579 C   0  0  0  0  0  0  0  0  0  0  0  0
    5.5945    2.4363   -0.6549 C   0  0  0  0  0  0  0  0  0  0  0  0
    6.4401    1.3597   -0.9188 C   0  0  0  0  0  0  0  0  0  0  0  0
    5.9368    0.0595   -0.9920 C   0  0  0  0  0  0  0  0  0  0  0  0
    6.8793   -0.8935   -1.2542 O   0  0  0  0  0  0  0  0  0  0  0  0
    6.4512   -2.2431   -1.3293 C   0  0  0  0  0  0  0  0  0  0  0  0
    5.5699   -2.4215   -2.3338 F   0  0  0  0  0  0  0  0  0  0  0  0
    5.8992   -2.6460   -0.1655 F   0  0  0  0  0  0  0  0  0  0  0  0
    7.5250   -3.0254   -1.5738 F   0  0  0  0  0  0  0  0  0  0  0  0
    4.5691   -0.1518   -0.7993 C   0  0  0  0  0  0  0  0  0  0  0  0
    1.4463    0.2568   -1.3581 C   0  0  0  0  0  0  0  0  0  0  0  0
    0.0779    0.0399   -1.1535 C   0  0  0  0  0  0  0  0  0  0  0  0
   -0.5146    0.2417    0.0999 C   0  0  0  0  0  0  0  0  0  0  0  0
   -1.9009    0.0293    0.3308 N   0  0  0  0  0  0  0  0  0  0  0  0
   -2.8522   -0.3593   -0.5807 C   0  0  0  0  0  0  0  0  0  0  0  0
   -2.6696   -0.5568   -1.7805 O   0  0  0  0  0  0  0  0  0  0  0  0
   -4.2261   -0.6203   -0.0493 C   0  0  0  0  0  0  0  0  0  0  0  0
   -4.9207   -0.1858    1.0171 C   0  0  0  0  0  0  0  0  0  0  0  0
   -4.4796    0.7202    2.0756 C   0  0  0  0  0  0  0  0  0  0  0  0
   -3.3264    0.9608    2.3770 O   0  0  0  0  0  0  0  0  0  0  0  0
   -5.5108    1.2723    2.7306 O   0  0  0  0  0  0  0  0  0  0  0  0
   -6.3179   -0.7328    1.0316 C   0  0  0  0  0  0  0  0  0  0  0  0
   -6.2398   -1.8786    0.0326 C   0  0  0  0  0  0  0  0  0  0  0  0
   -5.0916   -1.5164   -0.9007 C   0  0  0  0  0  0  0  0  0  0  0  0
    0.5991    1.0648    3.2746 H   0  0  0  0  0  0  0  0  0  0  0  0
   -0.7719    0.0268    2.9177 H   0  0  0  0  0  0  0  0  0  0  0  0
   -0.8522    1.7879    2.5742 H   0  0  0  0  0  0  0  0  0  0  0  0
    2.3135    1.2203    1.7677 H   0  0  0  0  0  0  0  0  0  0  0  0
    3.5795    3.0656   -0.2595 H   0  0  0  0  0  0  0  0  0  0  0  0
    5.9956    3.4440   -0.6057 H   0  0  0  0  0  0  0  0  0  0  0  0
    7.5021    1.5385   -1.0701 H   0  0  0  0  0  0  0  0  0  0  0  0
    4.1367   -1.1479   -0.8436 H   0  0  0  0  0  0  0  0  0  0  0  0
    1.8597    0.0918   -2.3519 H   0  0  0  0  0  0  0  0  0  0  0  0
   -0.4962   -0.2905   -2.0137 H   0  0  0  0  0  0  0  0  0  0  0  0
   -2.2220    0.2197    1.2762 H   0  0  0  0  0  0  0  0  0  0  0  0
   -5.0965    1.8563    3.4006 H   0  0  0  0  0  0  0  0  0  0  0  0
   -7.0311    0.0317    0.7019 H   0  0  0  0  0  0  0  0  0  0  0  0
   -6.6188   -1.1010    2.0181 H   0  0  0  0  0  0  0  0  0  0  0  0
   -6.0110   -2.8157    0.5585 H   0  0  0  0  0  0  0  0  0  0  0  0
   -7.1820   -2.0278   -0.5045 H   0  0  0  0  0  0  0  0  0  0  0  0
   -4.5672   -2.4191   -1.2325 H   0  0  0  0  0  0  0  0  0  0  0  0
   -5.4546   -0.9700   -1.7797 H   0  0  0  0  0  0  0  0  0  0  0  0
  1  2  1  0
  2  3  1  0
  3  4  2  0
  4  5  1  0
  5  6  2  0
  6  7  1  0
  7  8  2  0
  8  9  1  0
  9 10  1  0
 10 11  1  0
 11 12  1  0
 11 13  1  0
 11 14  1  0
  9 15  2  0
  4 16  1  0
 16 17  2  0
 17 18  1  0
 18 19  1  0
 19 20  1  0
 20 21  2  0
 20 22  1  0
 22 23  2  0
 23 24  1  0
 24 25  2  0
 24 26  1  0
 23 27  1  0
 27 28  1  0
 28 29  1  0
 18  2  2  0
 29 22  1  0
 15  5  1  0
  1 30  1  0
  1 31  1  0
  1 32  1  0
  3 33  1  0
  6 34  1  0
  7 35  1  0
  8 36  1  0
 15 37  1  0
 16 38  1  0
 17 39  1  0
 19 40  1  0
 26 41  1  0
 27 42  1  0
 27 43  1  0
 28 44  1  0
 28 45  1  0
 29 46  1  0
 29 47  1  0
M  END
$$$$
