
     RDKit          3D

 44 46  0  0  0  0  0  0  0  0999 V2000
   -6.4051    1.5680    0.8597 O   0  0  0  0  0  0  0  0  0  0  0  0
   -5.3546    1.0876    0.4747 C   0  0  0  0  0  0  0  0  0  0  0  0
   -4.1904    1.3617    1.0757 O   0  0  0  0  0  0  0  0  0  0  0  0
   -5.2273    0.1146   -0.6024 C   0  0  0  0  0  0  0  0  0  0  0  0
   -4.1459   -0.2002   -1.3239 C   0  0  0  0  0  0  0  0  0  0  0  0
   -2.8112    0.4149   -1.2151 C   0  0  0  0  0  0  0  0  0  0  0  0
   -2.5758    1.4393   -1.8351 O   0  0  0  0  0  0  0  0  0  0  0  0
   -1.9823   -0.3318   -0.4140 N   0  0  0  0  0  0  0  0  0  0  0  0
   -0.6393   -0.0804   -0.0497 C   0  0  0  0  0  0  0  0  0  0  0  0
    0.1191    1.0481   -0.3564 C   0  0  0  0  0  0  0  0  0  0  0  0
   -0.3804    2.0883   -1.0339 F   0  0  0  0  0  0  0  0  0  0  0  0
    1.4492    1.1645    0.0669 C   0  0  0  0  0  0  0  0  0  0  0  0
    2.0704    0.1560    0.8192 C   0  0  0  0  0  0  0  0  0  0  0  0
    3.4715    0.2804    1.2590 C   0  0  0  0  0  0  0  0  0  0  0  0
    3.8328    0.0509    2.5965 C   0  0  0  0  0  0  0  0  0  0  0  0
    5.1572    0.1853    3.0148 C   0  0  0  0  0  0  0  0  0  0  0  0
    6.1463    0.5438    2.1025 C   0  0  0  0  0  0  0  0  0  0  0  0
    5.8168    0.7481    0.7678 C   0  0  0  0  0  0  0  0  0  0  0  0
    6.8395    1.1269   -0.0598 O   0  0  0  0  0  0  0  0  0  0  0  0
    6.9467    0.3307   -1.2338 C   0  0  0  0  0  0  0  0  0  0  0  0
    6.8836   -0.9901   -0.9507 F   0  0  0  0  0  0  0  0  0  0  0  0
    8.1475    0.5811   -1.8064 F   0  0  0  0  0  0  0  0  0  0  0  0
    5.9783    0.6432   -2.1241 F   0  0  0  0  0  0  0  0  0  0  0  0
    4.4870    0.6387    0.3536 C   0  0  0  0  0  0  0  0  0  0  0  0
    1.3054   -0.9709    1.1400 C   0  0  0  0  0  0  0  0  0  0  0  0
   -0.0181   -1.0746    0.7119 C   0  0  0  0  0  0  0  0  0  0  0  0
   -0.7127   -2.1768    1.0465 F   0  0  0  0  0  0  0  0  0  0  0  0
   -4.4420   -1.2235   -2.3691 C   0  0  0  0  0  0  0  0  0  0  0  0
   -5.7902   -1.7688   -1.8997 C   0  0  0  0  0  0  0  0  0  0  0  0
   -6.4246   -0.6471   -1.0734 C   0  0  0  0  0  0  0  0  0  0  0  0
   -4.4184    2.0449    1.7403 H   0  0  0  0  0  0  0  0  0  0  0  0
   -2.3734   -1.1806   -0.0195 H   0  0  0  0  0  0  0  0  0  0  0  0
    1.9841    2.0756   -0.1888 H   0  0  0  0  0  0  0  0  0  0  0  0
    3.0733   -0.2105    3.3357 H   0  0  0  0  0  0  0  0  0  0  0  0
    5.4131    0.0224    4.0611 H   0  0  0  0  0  0  0  0  0  0  0  0
    7.1746    0.6576    2.4339 H   0  0  0  0  0  0  0  0  0  0  0  0
    4.2227    0.8425   -0.6839 H   0  0  0  0  0  0  0  0  0  0  0  0
    1.7270   -1.7894    1.7212 H   0  0  0  0  0  0  0  0  0  0  0  0
   -3.6927   -2.0163   -2.4085 H   0  0  0  0  0  0  0  0  0  0  0  0
   -4.5221   -0.7566   -3.3548 H   0  0  0  0  0  0  0  0  0  0  0  0
   -6.4248   -2.0830   -2.7332 H   0  0  0  0  0  0  0  0  0  0  0  0
   -5.6311   -2.6503   -1.2631 H   0  0  0  0  0  0  0  0  0  0  0  0
   -7.0195   -1.0531   -0.2489 H   0  0  0  0  0  0  0  0  0  0  0  0
   -7.0642   -0.0111   -1.6991 H   0  0  0  0  0  0  0  0  0  0  0  0
  1  2  2  0
  2  3  1  0
  2  4  1  0
  4  5  2  0
  5  6  1  0
  6  7  2  0
  6  8  1  0
  8  9  1  0
  9 10  1  0
 10 11  1  0
 10 12  2  0
 12 13  1  0
 13 14  1  0
 14 15  2  0
 15 16  1  0
 16 17  2  0
 17 18  1  0
 18 19  1  0
 19 20  1  0
 20 21  1  0
 20 22  1  0
 20 23  1  0
 18 24  2  0
 13 25  2  0
 25 26  1  0
 26 27  1  0
  5 28  1  0
 28 29  1  0
 29 30  1  0
 30  4  1  0
 26  9  2  0
 24 14  1  0
  3 31  1  0
  8 32  1  0
 12 33  1  0
 15 34  1  0
 16 35  1  0
 17 36  1  0
 24 37  1  0
 25 38  1  0
 28 39  1  0
 28 40  1  0
 29 41  1  0
 29 42  1  0
 30 43  1  0
 30 44  1  0
M  END
$$$$
