
     RDKit          3D

 48 50  0  0  0  0  0  0  0  0999 V2000
    7.6182    0.1790   -1.7940 C   0  0  0  0  0  0  0  0  0  0  0  0
    6.9655    0.7601   -0.6223 N   0  0  0  0  0  0  0  0  0  0  0  0
    7.7686    0.7488    0.6016 C   0  0  0  0  0  0  0  0  0  0  0  0
    5.5747    0.6291   -0.4887 C   0  0  0  0  0  0  0  0  0  0  0  0
    4.7597    0.1197   -1.5188 C   0  0  0  0  0  0  0  0  0  0  0  0
    3.3678   -0.0042   -1.3818 C   0  0  0  0  0  0  0  0  0  0  0  0
    2.7244    0.3881   -0.2027 C   0  0  0  0  0  0  0  0  0  0  0  0
    1.2685    0.2606   -0.0501 C   0  0  0  0  0  0  0  0  0  0  0  0
    0.4739    1.4187   -0.0891 C   0  0  0  0  0  0  0  0  0  0  0  0
   -0.9159    1.3475    0.0562 C   0  0  0  0  0  0  0  0  0  0  0  0
   -1.5504    0.1164    0.2551 C   0  0  0  0  0  0  0  0  0  0  0  0
   -2.9518    0.1305    0.4086 N   0  0  0  0  0  0  0  0  0  0  0  0
   -3.7734   -0.9490    0.6507 C   0  0  0  0  0  0  0  0  0  0  0  0
   -3.4693   -2.1266    0.7948 O   0  0  0  0  0  0  0  0  0  0  0  0
   -5.1861   -0.5487    0.7741 C   0  0  0  0  0  0  0  0  0  0  0  0
   -6.0964   -0.5396   -0.2096 C   0  0  0  0  0  0  0  0  0  0  0  0
   -5.9124   -0.8460   -1.6291 C   0  0  0  0  0  0  0  0  0  0  0  0
   -6.8015   -1.1787   -2.3976 O   0  0  0  0  0  0  0  0  0  0  0  0
   -4.6524   -0.6603   -2.0450 O   0  0  0  0  0  0  0  0  0  0  0  0
   -7.4627   -0.2506    0.3248 C   0  0  0  0  0  0  0  0  0  0  0  0
   -7.2841   -0.4427    1.8351 C   0  0  0  0  0  0  0  0  0  0  0  0
   -5.7889   -0.2837    2.1131 C   0  0  0  0  0  0  0  0  0  0  0  0
   -0.7743   -1.0418    0.2920 C   0  0  0  0  0  0  0  0  0  0  0  0
    0.6185   -0.9729    0.1395 C   0  0  0  0  0  0  0  0  0  0  0  0
    1.4983   -2.4635    0.2070 Cl  0  0  0  0  0  0  0  0  0  0  0  0
    3.5122    0.9227    0.8242 C   0  0  0  0  0  0  0  0  0  0  0  0
    4.9032    1.0424    0.6781 C   0  0  0  0  0  0  0  0  0  0  0  0
    8.6894    0.4114   -1.7998 H   0  0  0  0  0  0  0  0  0  0  0  0
    7.2174    0.5976   -2.7225 H   0  0  0  0  0  0  0  0  0  0  0  0
    7.5141   -0.9105   -1.8027 H   0  0  0  0  0  0  0  0  0  0  0  0
    7.5662   -0.1505    1.2001 H   0  0  0  0  0  0  0  0  0  0  0  0
    8.8426    0.7586    0.3721 H   0  0  0  0  0  0  0  0  0  0  0  0
    7.5821    1.6470    1.2067 H   0  0  0  0  0  0  0  0  0  0  0  0
    5.1837   -0.2101   -2.4642 H   0  0  0  0  0  0  0  0  0  0  0  0
    2.7921   -0.4178   -2.2117 H   0  0  0  0  0  0  0  0  0  0  0  0
    0.9404    2.3918   -0.2390 H   0  0  0  0  0  0  0  0  0  0  0  0
   -1.4886    2.2719    0.0162 H   0  0  0  0  0  0  0  0  0  0  0  0
   -3.4057    1.0310    0.3174 H   0  0  0  0  0  0  0  0  0  0  0  0
   -4.6670   -0.9431   -2.9854 H   0  0  0  0  0  0  0  0  0  0  0  0
   -8.2266   -0.9329   -0.0650 H   0  0  0  0  0  0  0  0  0  0  0  0
   -7.7515    0.7804    0.0874 H   0  0  0  0  0  0  0  0  0  0  0  0
   -7.8856    0.2680    2.4131 H   0  0  0  0  0  0  0  0  0  0  0  0
   -7.6075   -1.4537    2.1246 H   0  0  0  0  0  0  0  0  0  0  0  0
   -5.4540   -0.9953    2.8745 H   0  0  0  0  0  0  0  0  0  0  0  0
   -5.5506    0.7331    2.4463 H   0  0  0  0  0  0  0  0  0  0  0  0
   -1.2265   -2.0182    0.4356 H   0  0  0  0  0  0  0  0  0  0  0  0
    3.0543    1.2484    1.7582 H   0  0  0  0  0  0  0  0  0  0  0  0
    5.4472    1.4827    1.5120 H   0  0  0  0  0  0  0  0  0  0  0  0
  1  2  1  0
  2  3  1  0
  2  4  1  0
  4  5  1  0
  5  6  2  0
  6  7  1  0
  7  8  1  0
  8  9  1  0
  9 10  2  0
 10 11  1  0
 11 12  1  0
 12 13  1  0
 13 14  2  0
 13 15  1  0
 15 16  2  0
 16 17  1  0
 17 18  2  0
 17 19  1  0
 16 20  1  0
 20 21  1  0
 21 22  1  0
 11 23  2  0
 23 24  1  0
 24 25  1  0
  7 26  2  0
 26 27  1  0
 27  4  2  0
 24  8  2  0
 22 15  1  0
  1 28  1  0
  1 29  1  0
  1 30  1  0
  3 31  1  0
  3 32  1  0
  3 33  1  0
  5 34  1  0
  6 35  1  0
  9 36  1  0
 10 37  1  0
 12 38  1  0
 19 39  1  0
 20 40  1  0
 20 41  1  0
 21 42  1  0
 21 43  1  0
 22 44  1  0
 22 45  1  0
 23 46  1  0
 26 47  1  0
 27 48  1  0
M  END
$$$$
