
     RDKit          3D

 52 54  0  0  0  0  0  0  0  0999 V2000
   -7.1990   -1.4180   -0.0676 C   0  0  0  0  0  0  0  0  0  0  0  0
   -6.5495   -0.0645   -0.4347 C   0  0  0  0  0  0  0  0  0  0  0  0
   -7.1387    0.9977    0.5184 C   0  0  0  0  0  0  0  0  0  0  0  0
   -6.9689    0.2646   -1.8838 C   0  0  0  0  0  0  0  0  0  0  0  0
   -5.0147   -0.0616   -0.3269 C   0  0  0  0  0  0  0  0  0  0  0  0
   -4.2795   -1.1886    0.0719 C   0  0  0  0  0  0  0  0  0  0  0  0
   -2.8816   -1.1525    0.1623 C   0  0  0  0  0  0  0  0  0  0  0  0
   -2.1680    0.0127   -0.1399 C   0  0  0  0  0  0  0  0  0  0  0  0
   -0.7020    0.0475   -0.0553 C   0  0  0  0  0  0  0  0  0  0  0  0
    0.0519    0.0051   -1.2397 C   0  0  0  0  0  0  0  0  0  0  0  0
    1.4523    0.0328   -1.2155 C   0  0  0  0  0  0  0  0  0  0  0  0
    2.1376    0.1047   -0.0045 C   0  0  0  0  0  0  0  0  0  0  0  0
    3.5428    0.1365    0.1102 N   0  0  0  0  0  0  0  0  0  0  0  0
    4.4720    0.0858   -0.8956 C   0  0  0  0  0  0  0  0  0  0  0  0
    4.2378    0.0235   -2.0978 O   0  0  0  0  0  0  0  0  0  0  0  0
    5.8919    0.1930   -0.4519 C   0  0  0  0  0  0  0  0  0  0  0  0
    6.5448   -0.2519    0.6365 C   0  0  0  0  0  0  0  0  0  0  0  0
    6.0857   -0.9965    1.8112 C   0  0  0  0  0  0  0  0  0  0  0  0
    6.7545   -1.7874    2.4498 O   0  0  0  0  0  0  0  0  0  0  0  0
    4.8521   -0.6550    2.2129 O   0  0  0  0  0  0  0  0  0  0  0  0
    8.0164    0.0320    0.5467 C   0  0  0  0  0  0  0  0  0  0  0  0
    8.2107    0.3738   -0.9242 C   0  0  0  0  0  0  0  0  0  0  0  0
    6.8478    0.8454   -1.4151 C   0  0  0  0  0  0  0  0  0  0  0  0
    1.3995    0.1515    1.1827 C   0  0  0  0  0  0  0  0  0  0  0  0
   -0.0016    0.1231    1.1599 C   0  0  0  0  0  0  0  0  0  0  0  0
   -0.8197    0.2008    2.6846 Cl  0  0  0  0  0  0  0  0  0  0  0  0
   -2.8903    1.1407   -0.5422 C   0  0  0  0  0  0  0  0  0  0  0  0
   -4.2867    1.1037   -0.6322 C   0  0  0  0  0  0  0  0  0  0  0  0
   -6.9760   -1.7054    0.9665 H   0  0  0  0  0  0  0  0  0  0  0  0
   -6.8551   -2.2229   -0.7277 H   0  0  0  0  0  0  0  0  0  0  0  0
   -8.2907   -1.3703   -0.1601 H   0  0  0  0  0  0  0  0  0  0  0  0
   -8.2346    0.9927    0.4868 H   0  0  0  0  0  0  0  0  0  0  0  0
   -6.8158    2.0120    0.2592 H   0  0  0  0  0  0  0  0  0  0  0  0
   -6.8339    0.8102    1.5548 H   0  0  0  0  0  0  0  0  0  0  0  0
   -8.0590    0.2346   -1.9962 H   0  0  0  0  0  0  0  0  0  0  0  0
   -6.6428    1.2636   -2.1931 H   0  0  0  0  0  0  0  0  0  0  0  0
   -6.5405   -0.4551   -2.5915 H   0  0  0  0  0  0  0  0  0  0  0  0
   -4.7688   -2.1251    0.3246 H   0  0  0  0  0  0  0  0  0  0  0  0
   -2.3515   -2.0502    0.4747 H   0  0  0  0  0  0  0  0  0  0  0  0
   -0.4527   -0.0565   -2.2033 H   0  0  0  0  0  0  0  0  0  0  0  0
    1.9739   -0.0052   -2.1672 H   0  0  0  0  0  0  0  0  0  0  0  0
    3.9106    0.1682    1.0582 H   0  0  0  0  0  0  0  0  0  0  0  0
    4.7302   -1.2133    3.0141 H   0  0  0  0  0  0  0  0  0  0  0  0
    8.6370   -0.8250    0.8265 H   0  0  0  0  0  0  0  0  0  0  0  0
    8.2762    0.8811    1.1886 H   0  0  0  0  0  0  0  0  0  0  0  0
    8.5138   -0.5250   -1.4772 H   0  0  0  0  0  0  0  0  0  0  0  0
    8.9901    1.1273   -1.0761 H   0  0  0  0  0  0  0  0  0  0  0  0
    6.6944    0.5398   -2.4546 H   0  0  0  0  0  0  0  0  0  0  0  0
    6.7586    1.9356   -1.3509 H   0  0  0  0  0  0  0  0  0  0  0  0
    1.9093    0.2149    2.1405 H   0  0  0  0  0  0  0  0  0  0  0  0
   -2.3700    2.0650   -0.7850 H   0  0  0  0  0  0  0  0  0  0  0  0
   -4.8001    2.0101   -0.9460 H   0  0  0  0  0  0  0  0  0  0  0  0
  1  2  1  0
  2  3  1  0
  2  4  1  0
  2  5  1  0
  5  6  1  0
  6  7  2  0
  7  8  1  0
  8  9  1  0
  9 10  1  0
 10 11  2  0
 11 12  1  0
 12 13  1  0
 13 14  1  0
 14 15  2  0
 14 16  1  0
 16 17  2  0
 17 18  1  0
 18 19  2  0
 18 20  1  0
 17 21  1  0
 21 22  1  0
 22 23  1  0
 12 24  2  0
 24 25  1  0
 25 26  1  0
  8 27  2  0
 27 28  1  0
 28  5  2  0
 25  9  2  0
 23 16  1  0
  1 29  1  0
  1 30  1  0
  1 31  1  0
  3 32  1  0
  3 33  1  0
  3 34  1  0
  4 35  1  0
  4 36  1  0
  4 37  1  0
  6 38  1  0
  7 39  1  0
 10 40  1  0
 11 41  1  0
 13 42  1  0
 20 43  1  0
 21 44  1  0
 21 45  1  0
 22 46  1  0
 22 47  1  0
 23 48  1  0
 23 49  1  0
 24 50  1  0
 27 51  1  0
 28 52  1  0
M  END
$$$$
