
     RDKit          3D

 49 52  0  0  0  0  0  0  0  0999 V2000
    4.0240   -2.1080    2.3519 O   0  0  0  0  0  0  0  0  0  0  0  0
    5.0375   -2.0315    1.6840 C   0  0  0  0  0  0  0  0  0  0  0  0
    6.1103   -2.8018    1.9266 O   0  0  0  0  0  0  0  0  0  0  0  0
    5.2837   -1.0992    0.5871 C   0  0  0  0  0  0  0  0  0  0  0  0
    4.3400   -0.6170   -0.2319 C   0  0  0  0  0  0  0  0  0  0  0  0
    2.9301   -1.0459   -0.2478 C   0  0  0  0  0  0  0  0  0  0  0  0
    2.6543   -2.1837   -0.5975 O   0  0  0  0  0  0  0  0  0  0  0  0
    2.0844   -0.0243    0.1277 N   0  0  0  0  0  0  0  0  0  0  0  0
    0.6720   -0.0533    0.2208 C   0  0  0  0  0  0  0  0  0  0  0  0
   -0.0620   -1.2138   -0.0610 C   0  0  0  0  0  0  0  0  0  0  0  0
   -1.4588   -1.2325    0.0321 C   0  0  0  0  0  0  0  0  0  0  0  0
   -2.1656   -0.0886    0.4075 C   0  0  0  0  0  0  0  0  0  0  0  0
   -3.6326   -0.1001    0.5085 C   0  0  0  0  0  0  0  0  0  0  0  0
   -4.2103   -0.5139    1.7238 C   0  0  0  0  0  0  0  0  0  0  0  0
   -5.5910   -0.5249    1.8931 C   0  0  0  0  0  0  0  0  0  0  0  0
   -6.4190   -0.1201    0.8498 C   0  0  0  0  0  0  0  0  0  0  0  0
   -5.8818    0.2937   -0.3787 C   0  0  0  0  0  0  0  0  0  0  0  0
   -6.7337    0.6949   -1.4219 C   0  0  0  0  0  0  0  0  0  0  0  0
   -6.2211    1.1005   -2.6542 C   0  0  0  0  0  0  0  0  0  0  0  0
   -4.8482    1.1100   -2.8601 C   0  0  0  0  0  0  0  0  0  0  0  0
   -3.9879    0.7197   -1.8314 C   0  0  0  0  0  0  0  0  0  0  0  0
   -4.4759    0.3049   -0.5682 C   0  0  0  0  0  0  0  0  0  0  0  0
   -1.4381    1.0731    0.6936 C   0  0  0  0  0  0  0  0  0  0  0  0
   -0.0277    1.1093    0.6069 C   0  0  0  0  0  0  0  0  0  0  0  0
    0.6372    2.4264    0.9195 C   0  0  0  0  0  0  0  0  0  0  0  0
    0.3023    3.4024    0.0272 F   0  0  0  0  0  0  0  0  0  0  0  0
    2.0038    2.3817    0.9077 F   0  0  0  0  0  0  0  0  0  0  0  0
    0.3001    2.9110    2.1474 F   0  0  0  0  0  0  0  0  0  0  0  0
    4.8925    0.3330   -1.2379 C   0  0  0  0  0  0  0  0  0  0  0  0
    6.3991    0.0892   -1.1195 C   0  0  0  0  0  0  0  0  0  0  0  0
    6.6289   -0.5464    0.2566 C   0  0  0  0  0  0  0  0  0  0  0  0
    5.8080   -3.3994    2.6436 H   0  0  0  0  0  0  0  0  0  0  0  0
    2.5416    0.8416    0.4025 H   0  0  0  0  0  0  0  0  0  0  0  0
    0.4238   -2.1411   -0.3540 H   0  0  0  0  0  0  0  0  0  0  0  0
   -1.9903   -2.1554   -0.1958 H   0  0  0  0  0  0  0  0  0  0  0  0
   -3.5739   -0.8293    2.5497 H   0  0  0  0  0  0  0  0  0  0  0  0
   -6.0208   -0.8464    2.8382 H   0  0  0  0  0  0  0  0  0  0  0  0
   -7.4964   -0.1320    1.0031 H   0  0  0  0  0  0  0  0  0  0  0  0
   -7.8129    0.6914   -1.2820 H   0  0  0  0  0  0  0  0  0  0  0  0
   -6.8946    1.4065   -3.4508 H   0  0  0  0  0  0  0  0  0  0  0  0
   -4.4413    1.4195   -3.8201 H   0  0  0  0  0  0  0  0  0  0  0  0
   -2.9183    0.7362   -2.0309 H   0  0  0  0  0  0  0  0  0  0  0  0
   -1.9786    1.9747    0.9892 H   0  0  0  0  0  0  0  0  0  0  0  0
    4.6366    1.3664   -0.9762 H   0  0  0  0  0  0  0  0  0  0  0  0
    4.5394    0.1254   -2.2539 H   0  0  0  0  0  0  0  0  0  0  0  0
    6.7234   -0.6071   -1.9058 H   0  0  0  0  0  0  0  0  0  0  0  0
    6.9758    1.0112   -1.2482 H   0  0  0  0  0  0  0  0  0  0  0  0
    6.9244    0.2067    0.9958 H   0  0  0  0  0  0  0  0  0  0  0  0
    7.4074   -1.3137    0.1982 H   0  0  0  0  0  0  0  0  0  0  0  0
  1  2  2  0
  2  3  1  0
  2  4  1  0
  4  5  2  0
  5  6  1  0
  6  7  2  0
  6  8  1  0
  8  9  1  0
  9 10  1  0
 10 11  2  0
 11 12  1  0
 12 13  1  0
 13 14  2  0
 14 15  1  0
 15 16  2  0
 16 17  1  0
 17 18  2  0
 18 19  1  0
 19 20  2  0
 20 21  1  0
 21 22  2  0
 12 23  2  0
 23 24  1  0
 24 25  1  0
 25 26  1  0
 25 27  1  0
 25 28  1  0
  5 29  1  0
 29 30  1  0
 30 31  1  0
 31  4  1  0
 24  9  2  0
 22 13  1  0
 22 17  1  0
  3 32  1  0
  8 33  1  0
 10 34  1  0
 11 35  1  0
 14 36  1  0
 15 37  1  0
 16 38  1  0
 18 39  1  0
 19 40  1  0
 20 41  1  0
 21 42  1  0
 23 43  1  0
 29 44  1  0
 29 45  1  0
 30 46  1  0
 30 47  1  0
 31 48  1  0
 31 49  1  0
M  END
$$$$
