
     RDKit          3D

 44 47  0  0  0  0  0  0  0  0999 V2000
   -3.8571   -3.4222    0.9321 O   0  0  0  0  0  0  0  0  0  0  0  0
   -4.2507   -2.6209    0.0307 C   0  0  0  0  0  0  0  0  0  0  0  0
   -5.1460   -2.8332   -0.8383 O   0  0  0  0  0  0  0  0  0  0  0  0
   -3.5404   -1.2948   -0.0187 C   0  0  0  0  0  0  0  0  0  0  0  0
   -2.1247   -1.2672   -0.1039 C   0  0  0  0  0  0  0  0  0  0  0  0
   -1.4907   -0.0282   -0.0071 C   0  0  0  0  0  0  0  0  0  0  0  0
   -2.1800    1.1368    0.0850 N   0  0  0  0  0  0  0  0  0  0  0  0
   -3.5190    1.1116    0.1104 C   0  0  0  0  0  0  0  0  0  0  0  0
   -4.1821    2.3302    0.2000 C   0  0  0  0  0  0  0  0  0  0  0  0
   -5.5732    2.4095    0.2637 C   0  0  0  0  0  0  0  0  0  0  0  0
   -6.3131    1.2417    0.2399 C   0  0  0  0  0  0  0  0  0  0  0  0
   -7.6494    1.3077    0.3076 F   0  0  0  0  0  0  0  0  0  0  0  0
   -5.6812    0.0090    0.1489 C   0  0  0  0  0  0  0  0  0  0  0  0
   -4.2685   -0.0803    0.0732 C   0  0  0  0  0  0  0  0  0  0  0  0
   -0.0219    0.1250    0.0351 C   0  0  0  0  0  0  0  0  0  0  0  0
    0.5806    1.2858    0.5521 C   0  0  0  0  0  0  0  0  0  0  0  0
    1.9745    1.4356    0.6046 C   0  0  0  0  0  0  0  0  0  0  0  0
    2.8322    0.4293    0.1390 C   0  0  0  0  0  0  0  0  0  0  0  0
    4.2955    0.5845    0.1973 C   0  0  0  0  0  0  0  0  0  0  0  0
    5.1081   -0.4122    0.7637 C   0  0  0  0  0  0  0  0  0  0  0  0
    6.4971   -0.2661    0.8200 C   0  0  0  0  0  0  0  0  0  0  0  0
    7.0989    0.8807    0.3089 C   0  0  0  0  0  0  0  0  0  0  0  0
    6.3133    1.8806   -0.2584 C   0  0  0  0  0  0  0  0  0  0  0  0
    4.9244    1.7329   -0.3131 C   0  0  0  0  0  0  0  0  0  0  0  0
    2.2452   -0.7294   -0.3827 C   0  0  0  0  0  0  0  0  0  0  0  0
    0.8477   -0.8624   -0.4301 C   0  0  0  0  0  0  0  0  0  0  0  0
    0.1619   -2.3462   -1.0922 S   0  0  0  0  0  0  0  0  0  0  0  0
   -0.1151   -2.0708   -2.4896 O   0  0  0  0  0  0  0  0  0  0  0  0
    1.0714   -3.4183   -0.7203 O   0  0  0  0  0  0  0  0  0  0  0  0
   -1.3500   -2.5597   -0.1829 C   0  0  0  0  0  0  0  0  0  0  0  0
    0.0000    0.0000    0.0000 Na  0  0  0  0  0 15  0  0  0  0  0  0
   -3.5944    3.2443    0.2251 H   0  0  0  0  0  0  0  0  0  0  0  0
   -6.0745    3.3678    0.3340 H   0  0  0  0  0  0  0  0  0  0  0  0
   -6.2995   -0.8858    0.1252 H   0  0  0  0  0  0  0  0  0  0  0  0
   -0.0429    2.0948    0.9324 H   0  0  0  0  0  0  0  0  0  0  0  0
    2.3826    2.3506    1.0298 H   0  0  0  0  0  0  0  0  0  0  0  0
    4.6588   -1.3138    1.1766 H   0  0  0  0  0  0  0  0  0  0  0  0
    7.1049   -1.0502    1.2634 H   0  0  0  0  0  0  0  0  0  0  0  0
    8.1787    0.9934    0.3502 H   0  0  0  0  0  0  0  0  0  0  0  0
    6.7785    2.7748   -0.6642 H   0  0  0  0  0  0  0  0  0  0  0  0
    4.3308    2.5199   -0.7743 H   0  0  0  0  0  0  0  0  0  0  0  0
    2.8712   -1.5317   -0.7714 H   0  0  0  0  0  0  0  0  0  0  0  0
   -1.8874   -3.3420   -0.7273 H   0  0  0  0  0  0  0  0  0  0  0  0
   -1.0944   -2.9113    0.8215 H   0  0  0  0  0  0  0  0  0  0  0  0
  1  2  2  0
  2  3  1  0
  2  4  1  0
  4  5  2  0
  5  6  1  0
  6  7  2  0
  7  8  1  0
  8  9  2  0
  9 10  1  0
 10 11  2  0
 11 12  1  0
 11 13  1  0
 13 14  2  0
  6 15  1  0
 15 16  2  0
 16 17  1  0
 17 18  2  0
 18 19  1  0
 19 20  2  0
 20 21  1  0
 21 22  2  0
 22 23  1  0
 23 24  2  0
 18 25  1  0
 25 26  2  0
 26 27  1  0
 27 28  2  0
 27 29  2  0
 27 30  1  0
 14  4  1  0
 26 15  1  0
 30  5  1  0
 14  8  1  0
 24 19  1  0
  9 32  1  0
 10 33  1  0
 13 34  1  0
 16 35  1  0
 17 36  1  0
 20 37  1  0
 21 38  1  0
 22 39  1  0
 23 40  1  0
 24 41  1  0
 25 42  1  0
 30 43  1  0
 30 44  1  0
M  CHG  2   3  -1  31   1
M  END
$$$$
