
     RDKit          3D

 45 48  0  0  0  0  0  0  0  0999 V2000
    7.9360   -0.2993    0.3920 C   0  0  0  0  0  0  0  0  0  0  0  0
    6.4405   -0.2087    0.3360 C   0  0  0  0  0  0  0  0  0  0  0  0
    5.6692   -0.4929    1.4669 C   0  0  0  0  0  0  0  0  0  0  0  0
    4.2729   -0.4382    1.4052 C   0  0  0  0  0  0  0  0  0  0  0  0
    3.6119   -0.1078    0.2120 C   0  0  0  0  0  0  0  0  0  0  0  0
    2.1428   -0.0495    0.1495 C   0  0  0  0  0  0  0  0  0  0  0  0
    1.3581   -1.1396    0.5415 C   0  0  0  0  0  0  0  0  0  0  0  0
   -0.0388   -1.0826    0.4745 C   0  0  0  0  0  0  0  0  0  0  0  0
   -0.7124    0.0664    0.0204 C   0  0  0  0  0  0  0  0  0  0  0  0
    0.0744    1.1722   -0.3657 C   0  0  0  0  0  0  0  0  0  0  0  0
    1.4816    1.0999   -0.3082 C   0  0  0  0  0  0  0  0  0  0  0  0
   -0.5771    2.4172   -0.9115 C   0  0  0  0  0  0  0  0  0  0  0  0
   -2.0529    2.8843    0.0175 S   0  0  0  0  0  0  0  0  0  0  0  0
   -2.9183    1.3144   -0.0836 C   0  0  0  0  0  0  0  0  0  0  0  0
   -2.1970    0.1106   -0.0465 C   0  0  0  0  0  0  0  0  0  0  0  0
   -2.7980   -1.1121   -0.0734 N   0  0  0  0  0  0  0  0  0  0  0  0
   -4.1337   -1.1738   -0.1389 C   0  0  0  0  0  0  0  0  0  0  0  0
   -4.7216   -2.4332   -0.1654 C   0  0  0  0  0  0  0  0  0  0  0  0
   -6.1051   -2.5988   -0.2391 C   0  0  0  0  0  0  0  0  0  0  0  0
   -6.9149   -1.4782   -0.2873 C   0  0  0  0  0  0  0  0  0  0  0  0
   -8.2441   -1.6297   -0.3586 F   0  0  0  0  0  0  0  0  0  0  0  0
   -6.3600   -0.2064   -0.2629 C   0  0  0  0  0  0  0  0  0  0  0  0
   -4.9567   -0.0302   -0.1869 C   0  0  0  0  0  0  0  0  0  0  0  0
   -4.3188    1.2375   -0.1616 C   0  0  0  0  0  0  0  0  0  0  0  0
   -5.1490    2.4746   -0.2572 C   0  0  0  0  0  0  0  0  0  0  0  0
   -5.2253    3.0133   -1.4036 O   0  0  0  0  0  0  0  0  0  0  0  0
   -5.7535    2.8343    0.7986 O   0  0  0  0  0  0  0  0  0  0  0  0
    4.3962    0.1615   -0.9204 C   0  0  0  0  0  0  0  0  0  0  0  0
    5.7927    0.1064   -0.8622 C   0  0  0  0  0  0  0  0  0  0  0  0
    0.0000    0.0000    0.0000 Na  0  0  0  0  0 15  0  0  0  0  0  0
    8.3060   -0.0402    1.3896 H   0  0  0  0  0  0  0  0  0  0  0  0
    8.3965    0.3980   -0.3158 H   0  0  0  0  0  0  0  0  0  0  0  0
    8.2587   -1.3160    0.1479 H   0  0  0  0  0  0  0  0  0  0  0  0
    6.1468   -0.7549    2.4080 H   0  0  0  0  0  0  0  0  0  0  0  0
    3.6975   -0.6466    2.3053 H   0  0  0  0  0  0  0  0  0  0  0  0
    1.8265   -2.0563    0.8925 H   0  0  0  0  0  0  0  0  0  0  0  0
   -0.6119   -1.9550    0.7853 H   0  0  0  0  0  0  0  0  0  0  0  0
    2.0692    1.9641   -0.6150 H   0  0  0  0  0  0  0  0  0  0  0  0
   -0.8352    2.2601   -1.9650 H   0  0  0  0  0  0  0  0  0  0  0  0
    0.1151    3.2647   -0.8655 H   0  0  0  0  0  0  0  0  0  0  0  0
   -4.0802   -3.3099   -0.1291 H   0  0  0  0  0  0  0  0  0  0  0  0
   -6.5474   -3.5881   -0.2591 H   0  0  0  0  0  0  0  0  0  0  0  0
   -7.0269    0.6532   -0.2970 H   0  0  0  0  0  0  0  0  0  0  0  0
    3.9183    0.4043   -1.8675 H   0  0  0  0  0  0  0  0  0  0  0  0
    6.3679    0.3112   -1.7621 H   0  0  0  0  0  0  0  0  0  0  0  0
  1  2  1  0
  2  3  1  0
  3  4  2  0
  4  5  1  0
  5  6  1  0
  6  7  2  0
  7  8  1  0
  8  9  2  0
  9 10  1  0
 10 11  2  0
 10 12  1  0
 12 13  1  0
 13 14  1  0
 14 15  1  0
 15 16  2  0
 16 17  1  0
 17 18  2  0
 18 19  1  0
 19 20  2  0
 20 21  1  0
 20 22  1  0
 22 23  2  0
 23 24  1  0
 24 25  1  0
 25 26  2  0
 25 27  1  0
  5 28  2  0
 28 29  1  0
 29  2  2  0
 11  6  1  0
 24 14  2  0
 15  9  1  0
 23 17  1  0
  1 31  1  0
  1 32  1  0
  1 33  1  0
  3 34  1  0
  4 35  1  0
  7 36  1  0
  8 37  1  0
 11 38  1  0
 12 39  1  0
 12 40  1  0
 18 41  1  0
 19 42  1  0
 22 43  1  0
 28 44  1  0
 29 45  1  0
M  CHG  2  27  -1  30   1
M  END
$$$$
