
     RDKit          3D

 28 28  0  0  0  0  0  0  0  0999 V2000
    3.7298    1.4236    1.5358 C   0  0  0  0  0  0  0  0  0  0  0  0
    3.9345    0.1594    0.7439 C   0  0  0  0  0  0  0  0  0  0  0  0
    5.2763   -0.0518    0.4494 O   0  0  0  0  0  0  0  0  0  0  0  0
    2.9415   -0.6600    0.3298 C   0  0  0  0  0  0  0  0  0  0  0  0
    3.1952   -1.8120   -0.4601 C   0  0  0  0  0  0  0  0  0  0  0  0
    3.4301   -2.7232   -1.1385 N   0  0  0  0  0  0  0  0  0  0  0  0
    1.5207   -0.3910    0.7168 C   0  0  0  0  0  0  0  0  0  0  0  0
    1.2414   -0.1500    1.8856 O   0  0  0  0  0  0  0  0  0  0  0  0
    0.6386   -0.4449   -0.3489 N   0  0  0  0  0  0  0  0  0  0  0  0
   -0.7595   -0.2478   -0.3107 C   0  0  0  0  0  0  0  0  0  0  0  0
   -1.4501   -0.3451   -1.5255 C   0  0  0  0  0  0  0  0  0  0  0  0
   -2.8365   -0.1644   -1.5786 C   0  0  0  0  0  0  0  0  0  0  0  0
   -3.5634    0.1110   -0.4134 C   0  0  0  0  0  0  0  0  0  0  0  0
   -5.0557    0.3293   -0.4692 C   0  0  0  0  0  0  0  0  0  0  0  0
   -5.3788    1.6298   -0.7097 F   0  0  0  0  0  0  0  0  0  0  0  0
   -5.6627   -0.3941   -1.4516 F   0  0  0  0  0  0  0  0  0  0  0  0
   -5.6920   -0.0082    0.6867 F   0  0  0  0  0  0  0  0  0  0  0  0
   -2.8691    0.2155    0.7990 C   0  0  0  0  0  0  0  0  0  0  0  0
   -1.4812    0.0341    0.8496 C   0  0  0  0  0  0  0  0  0  0  0  0
    4.4472    2.1881    1.2165 H   0  0  0  0  0  0  0  0  0  0  0  0
    2.7358    1.8583    1.3991 H   0  0  0  0  0  0  0  0  0  0  0  0
    3.8914    1.2307    2.6008 H   0  0  0  0  0  0  0  0  0  0  0  0
    5.4265   -0.9067    0.0073 H   0  0  0  0  0  0  0  0  0  0  0  0
    1.0164   -0.6344   -1.2701 H   0  0  0  0  0  0  0  0  0  0  0  0
   -0.9233   -0.5633   -2.4517 H   0  0  0  0  0  0  0  0  0  0  0  0
   -3.3484   -0.2429   -2.5371 H   0  0  0  0  0  0  0  0  0  0  0  0
   -3.4055    0.4380    1.7211 H   0  0  0  0  0  0  0  0  0  0  0  0
   -0.9991    0.1222    1.8186 H   0  0  0  0  0  0  0  0  0  0  0  0
  1  2  1  0
  2  3  1  0
  2  4  2  0
  4  5  1  0
  5  6  3  0
  4  7  1  0
  7  8  2  0
  7  9  1  0
  9 10  1  0
 10 11  1  0
 11 12  2  0
 12 13  1  0
 13 14  1  0
 14 15  1  0
 14 16  1  0
 14 17  1  0
 13 18  2  0
 18 19  1  0
 19 10  2  0
  1 20  1  0
  1 21  1  0
  1 22  1  0
  3 23  1  0
  9 24  1  0
 11 25  1  0
 12 26  1  0
 18 27  1  0
 19 28  1  0
M  END
$$$$
