
     RDKit          3D

 48 50  0  0  0  0  0  0  0  0999 V2000
    7.9523    1.3147   -0.0093 C   0  0  0  0  0  0  0  0  0  0  0  0
    6.5458    1.3872   -0.2045 O   0  0  0  0  0  0  0  0  0  0  0  0
    5.7916    0.3891    0.3493 C   0  0  0  0  0  0  0  0  0  0  0  0
    6.2767   -0.7024    1.0675 C   0  0  0  0  0  0  0  0  0  0  0  0
    5.3896   -1.6519    1.5779 C   0  0  0  0  0  0  0  0  0  0  0  0
    4.0156   -1.5142    1.3712 C   0  0  0  0  0  0  0  0  0  0  0  0
    3.5026   -0.4251    0.6512 C   0  0  0  0  0  0  0  0  0  0  0  0
    2.0553   -0.2749    0.4309 C   0  0  0  0  0  0  0  0  0  0  0  0
    1.3850    0.8916    0.8260 C   0  0  0  0  0  0  0  0  0  0  0  0
    0.0095    1.0410    0.6225 C   0  0  0  0  0  0  0  0  0  0  0  0
   -0.7246    0.0236    0.0154 C   0  0  0  0  0  0  0  0  0  0  0  0
   -2.1139    0.1001   -0.2278 N   0  0  0  0  0  0  0  0  0  0  0  0
   -2.9769    1.1193    0.0927 C   0  0  0  0  0  0  0  0  0  0  0  0
   -2.7152    2.1756    0.6532 O   0  0  0  0  0  0  0  0  0  0  0  0
   -4.3556    0.8493   -0.3689 C   0  0  0  0  0  0  0  0  0  0  0  0
   -5.4706    1.0777    0.3386 C   0  0  0  0  0  0  0  0  0  0  0  0
   -5.5747    1.5197    1.7275 C   0  0  0  0  0  0  0  0  0  0  0  0
   -6.4589    2.2250    2.1776 O   0  0  0  0  0  0  0  0  0  0  0  0
   -4.6397    0.9617    2.5099 O   0  0  0  0  0  0  0  0  0  0  0  0
   -6.6987    0.8659   -0.4826 C   0  0  0  0  0  0  0  0  0  0  0  0
   -6.1382    0.8070   -1.9046 C   0  0  0  0  0  0  0  0  0  0  0  0
   -4.6669    0.4145   -1.7625 C   0  0  0  0  0  0  0  0  0  0  0  0
   -0.0690   -1.1561   -0.3935 C   0  0  0  0  0  0  0  0  0  0  0  0
   -0.8748   -2.1013   -0.9895 O   0  0  0  0  0  0  0  0  0  0  0  0
   -0.2464   -3.2965   -1.4371 C   0  0  0  0  0  0  0  0  0  0  0  0
    1.3080   -1.2962   -0.1820 C   0  0  0  0  0  0  0  0  0  0  0  0
    4.4127    0.5193    0.1472 C   0  0  0  0  0  0  0  0  0  0  0  0
    8.3694    0.4153   -0.4744 H   0  0  0  0  0  0  0  0  0  0  0  0
    8.4031    2.1826   -0.5004 H   0  0  0  0  0  0  0  0  0  0  0  0
    8.2067    1.3649    1.0546 H   0  0  0  0  0  0  0  0  0  0  0  0
    7.3365   -0.8436    1.2493 H   0  0  0  0  0  0  0  0  0  0  0  0
    5.7690   -2.4996    2.1429 H   0  0  0  0  0  0  0  0  0  0  0  0
    3.3423   -2.2591    1.7908 H   0  0  0  0  0  0  0  0  0  0  0  0
    1.9309    1.6996    1.3106 H   0  0  0  0  0  0  0  0  0  0  0  0
   -0.4575    1.9640    0.9513 H   0  0  0  0  0  0  0  0  0  0  0  0
   -2.4896   -0.7346   -0.6641 H   0  0  0  0  0  0  0  0  0  0  0  0
   -4.7867    1.3687    3.3874 H   0  0  0  0  0  0  0  0  0  0  0  0
   -7.1828   -0.0777   -0.2089 H   0  0  0  0  0  0  0  0  0  0  0  0
   -7.4232    1.6799   -0.3840 H   0  0  0  0  0  0  0  0  0  0  0  0
   -6.2128    1.7974   -2.3725 H   0  0  0  0  0  0  0  0  0  0  0  0
   -6.6929    0.1073   -2.5379 H   0  0  0  0  0  0  0  0  0  0  0  0
   -4.5376   -0.6680   -1.8674 H   0  0  0  0  0  0  0  0  0  0  0  0
   -4.0521    0.9225   -2.5116 H   0  0  0  0  0  0  0  0  0  0  0  0
   -1.0174   -3.9298   -1.8865 H   0  0  0  0  0  0  0  0  0  0  0  0
    0.5009   -3.0846   -2.2087 H   0  0  0  0  0  0  0  0  0  0  0  0
    0.1910   -3.8496   -0.5996 H   0  0  0  0  0  0  0  0  0  0  0  0
    1.8341   -2.1914   -0.4983 H   0  0  0  0  0  0  0  0  0  0  0  0
    4.0480    1.3721   -0.4231 H   0  0  0  0  0  0  0  0  0  0  0  0
  1  2  1  0
  2  3  1  0
  3  4  1  0
  4  5  2  0
  5  6  1  0
  6  7  2  0
  7  8  1  0
  8  9  1  0
  9 10  2  0
 10 11  1  0
 11 12  1  0
 12 13  1  0
 13 14  2  0
 13 15  1  0
 15 16  2  0
 16 17  1  0
 17 18  2  0
 17 19  1  0
 16 20  1  0
 20 21  1  0
 21 22  1  0
 11 23  2  0
 23 24  1  0
 24 25  1  0
 23 26  1  0
  7 27  1  0
 27  3  2  0
 26  8  2  0
 22 15  1  0
  1 28  1  0
  1 29  1  0
  1 30  1  0
  4 31  1  0
  5 32  1  0
  6 33  1  0
  9 34  1  0
 10 35  1  0
 12 36  1  0
 19 37  1  0
 20 38  1  0
 20 39  1  0
 21 40  1  0
 21 41  1  0
 22 42  1  0
 22 43  1  0
 25 44  1  0
 25 45  1  0
 25 46  1  0
 26 47  1  0
 27 48  1  0
M  END
$$$$
