
     RDKit          3D

 47 49  0  0  0  0  0  0  0  0999 V2000
    7.9903   -0.5199   -1.4251 C   0  0  0  0  0  0  0  0  0  0  0  0
    7.3063    0.7997   -1.1122 C   0  0  0  0  0  0  0  0  0  0  0  0
    5.8879    0.6663   -1.1849 O   0  0  0  0  0  0  0  0  0  0  0  0
    5.1998    0.2871   -0.0666 C   0  0  0  0  0  0  0  0  0  0  0  0
    5.7499   -0.0940    1.1544 C   0  0  0  0  0  0  0  0  0  0  0  0
    4.9159   -0.4636    2.2111 C   0  0  0  0  0  0  0  0  0  0  0  0
    3.5289   -0.4559    2.0508 C   0  0  0  0  0  0  0  0  0  0  0  0
    2.9472   -0.0807    0.8307 C   0  0  0  0  0  0  0  0  0  0  0  0
    1.4856   -0.0703    0.6541 C   0  0  0  0  0  0  0  0  0  0  0  0
    0.8253    1.0507    0.1355 C   0  0  0  0  0  0  0  0  0  0  0  0
   -0.5612    1.0470   -0.0252 C   0  0  0  0  0  0  0  0  0  0  0  0
   -1.1448    2.1499   -0.5232 F   0  0  0  0  0  0  0  0  0  0  0  0
   -1.3472   -0.0630    0.3038 C   0  0  0  0  0  0  0  0  0  0  0  0
   -2.7410    0.0538    0.0856 N   0  0  0  0  0  0  0  0  0  0  0  0
   -3.6650   -0.9515    0.0086 C   0  0  0  0  0  0  0  0  0  0  0  0
   -3.4406   -2.1553    0.0424 O   0  0  0  0  0  0  0  0  0  0  0  0
   -5.0834   -0.5064   -0.1018 C   0  0  0  0  0  0  0  0  0  0  0  0
   -5.6904    0.5105   -0.7390 C   0  0  0  0  0  0  0  0  0  0  0  0
   -5.1726    1.5981   -1.5732 C   0  0  0  0  0  0  0  0  0  0  0  0
   -5.8223    2.2294   -2.3860 O   0  0  0  0  0  0  0  0  0  0  0  0
   -3.8966    1.9082   -1.3147 O   0  0  0  0  0  0  0  0  0  0  0  0
   -7.1834    0.4263   -0.5972 C   0  0  0  0  0  0  0  0  0  0  0  0
   -7.3607   -0.5550    0.5534 C   0  0  0  0  0  0  0  0  0  0  0  0
   -6.0992   -1.4080    0.5483 C   0  0  0  0  0  0  0  0  0  0  0  0
   -0.6904   -1.1677    0.8468 C   0  0  0  0  0  0  0  0  0  0  0  0
   -1.3545   -2.2350    1.3069 F   0  0  0  0  0  0  0  0  0  0  0  0
    0.7000   -1.1759    1.0122 C   0  0  0  0  0  0  0  0  0  0  0  0
    3.8074    0.2867   -0.2187 C   0  0  0  0  0  0  0  0  0  0  0  0
    7.7380   -1.2871   -0.6872 H   0  0  0  0  0  0  0  0  0  0  0  0
    7.6643   -0.8983   -2.3996 H   0  0  0  0  0  0  0  0  0  0  0  0
    9.0770   -0.3972   -1.4415 H   0  0  0  0  0  0  0  0  0  0  0  0
    7.6404    1.2304   -0.1620 H   0  0  0  0  0  0  0  0  0  0  0  0
    7.5878    1.5249   -1.8843 H   0  0  0  0  0  0  0  0  0  0  0  0
    6.8211   -0.1243    1.3194 H   0  0  0  0  0  0  0  0  0  0  0  0
    5.3480   -0.7595    3.1641 H   0  0  0  0  0  0  0  0  0  0  0  0
    2.9035   -0.7384    2.8956 H   0  0  0  0  0  0  0  0  0  0  0  0
    1.3774    1.9457   -0.1404 H   0  0  0  0  0  0  0  0  0  0  0  0
   -3.0563    0.9805   -0.1993 H   0  0  0  0  0  0  0  0  0  0  0  0
   -3.7077    2.6499   -1.9322 H   0  0  0  0  0  0  0  0  0  0  0  0
   -7.6328    0.0413   -1.5194 H   0  0  0  0  0  0  0  0  0  0  0  0
   -7.6387    1.3920   -0.3558 H   0  0  0  0  0  0  0  0  0  0  0  0
   -7.4361   -0.0073    1.5020 H   0  0  0  0  0  0  0  0  0  0  0  0
   -8.2696   -1.1563    0.4508 H   0  0  0  0  0  0  0  0  0  0  0  0
   -6.2402   -2.3169   -0.0474 H   0  0  0  0  0  0  0  0  0  0  0  0
   -5.8181   -1.6900    1.5680 H   0  0  0  0  0  0  0  0  0  0  0  0
    1.1562   -2.0702    1.4312 H   0  0  0  0  0  0  0  0  0  0  0  0
    3.3948    0.5697   -1.1858 H   0  0  0  0  0  0  0  0  0  0  0  0
  1  2  1  0
  2  3  1  0
  3  4  1  0
  4  5  1  0
  5  6  2  0
  6  7  1  0
  7  8  2  0
  8  9  1  0
  9 10  1  0
 10 11  2  0
 11 12  1  0
 11 13  1  0
 13 14  1  0
 14 15  1  0
 15 16  2  0
 15 17  1  0
 17 18  2  0
 18 19  1  0
 19 20  2  0
 19 21  1  0
 18 22  1  0
 22 23  1  0
 23 24  1  0
 13 25  2  0
 25 26  1  0
 25 27  1  0
  8 28  1  0
 28  4  2  0
 27  9  2  0
 24 17  1  0
  1 29  1  0
  1 30  1  0
  1 31  1  0
  2 32  1  0
  2 33  1  0
  5 34  1  0
  6 35  1  0
  7 36  1  0
 10 37  1  0
 14 38  1  0
 21 39  1  0
 22 40  1  0
 22 41  1  0
 23 42  1  0
 23 43  1  0
 24 44  1  0
 24 45  1  0
 27 46  1  0
 28 47  1  0
M  END
$$$$
